
#######################################################################
#
#                 Cambridge Crystallographic Data Centre
#                                CCDC
#
#######################################################################
#
# If this CIF has been generated from an entry in the Cambridge
# Structural Database, then it will include bibliographic, chemical,
# crystal, experimental, refinement or atomic coordinate data resulting
# from the CCDC's data processing and validation procedures.
#
#######################################################################

data_CSD_CIF_HAHCOI
_audit_creation_date 1994-03-15
_audit_creation_method CSD-ConQuest-V1
_database_code_CSD HAHCOI
_database_code_depnum_ccdc_archive 'CCDC 1171543'
_chemical_formula_sum 'C12 H6 S2'
_chemical_formula_moiety
;
C12 H6 S2
;
_journal_coden_Cambridge 241
_journal_year 1993
_journal_page_first 365
_journal_name_full 'Chem.Lett. '
loop_
_publ_author_name
"K.Takimiya"
"F.Yashiki"
"Y.Aso"
"T.Otsubo"
"F.Ogura"
_chemical_name_systematic
;
Naphtho(1,8-bc:4,5-b'c')dithiophene
;
_chemical_melting_point 460.15
_cell_volume    453.272
_exptl_crystal_colour 'orange'
_exptl_crystal_density_diffrn 1.571
_exptl_special_details
;
Melts with decomposition.

;
_exptl_crystal_description 'needle'
_exptl_crystal_preparation 'chloroform/hexane'
_diffrn_ambient_temperature ?
_diffrn_special_details
;
The study was carried out at room temperature,in the range 283-303K

;
#These two values have been output from a single CSD field.
_refine_ls_R_factor_gt 0.042
_refine_ls_wR_factor_gt 0.042
_symmetry_cell_setting monoclinic
_symmetry_space_group_name_H-M 'P 21'
_symmetry_Int_Tables_number 4
loop_
_symmetry_equiv_pos_site_id
_symmetry_equiv_pos_as_xyz
1 x,y,z
2 -x,1/2+y,-z
_cell_length_a 7.837(1)
_cell_length_b 4.128
_cell_length_c 14.035(4)
_cell_angle_alpha 90
_cell_angle_beta 93.35(6)
_cell_angle_gamma 90
_cell_formula_units_Z 2
loop_
_atom_type_symbol
_atom_type_radius_bond
C 0.68
H 0.23
S 1.02
loop_
_atom_site_label
_atom_site_type_symbol
_atom_site_fract_x
_atom_site_fract_y
_atom_site_fract_z
S1 S 0.66465(11) 0.58211 0.94070(2)
C1 C 0.80971(47) 0.3893(12) 0.87202(25)
C2 C 0.98442(49) 0.3110(14) 0.88645(28)
C3 C 1.06631(50) 0.1400(14) 0.81872(28)
C4 C 0.97754(46) 0.0477(13) 0.73275(25)
S2 S 1.03698(13) -0.16588(44) 0.63204(7)
C5 C 0.83589(52) -0.1341(17) 0.57602(26)
C6 C 0.72107(50) 0.0292(13) 0.6313(1)
C7 C 0.54110(53) 0.1138(16) 0.61855(28)
C8 C 0.46019(52) 0.2818(13) 0.68467(29)
C9 C 0.54744(43) 0.3822(13) 0.77512(25)
C10 C 0.49757(47) 0.5459(15) 0.85512(29)
C11 C 0.72390(44) 0.2979(13) 0.78703(25)
C12 C 0.80575(46) 0.1256(13) 0.71884(25)
H1 H 1.03710 0.38557 0.93674
H2 H 1.17610 0.09162 0.82903
H3 H 0.81570 -0.23800 0.52034
H4 H 0.49091 0.04585 0.56568
H5 H 0.35434 0.32937 0.66847
H6 H 0.42053 0.59755 0.86131
#END
####################################################################### 
# 
# This file contains crystal structure data downloaded from the 
# Cambridge Structural Database (CSD) hosted by the Cambridge 
# Crystallographic Data Centre (CCDC).
# 
# Full information about CCDC data access policies and citation 
# guidelines are available at http://www.ccdc.cam.ac.uk/access/V1 
# 
# Audit and citation data items may have been added by the CCDC. 
# Please retain this information to preserve the provenance of 
# this file and to allow appropriate attribution of the data. 
# 
#######################################################################

data_final6_new_labels
_audit_block_doi                 10.5517/cc8jpzf
_database_code_depnum_ccdc_archive 'CCDC 254385'
loop_
_citation_id
_citation_doi
_citation_year
1 10.1021/jo048010w 2005
_audit_update_record             
;
2004-11-01 deposited with the CCDC.	2020-08-10 downloaded from the CCDC.
;

_audit_creation_method           SHELXL-97
_chemical_name_systematic        
;
Thieno[2,3-f:5,4-f']bis[1]benzothiophene
;
_chemical_name_common            Thieno(2,3-f:5,4-f')bis(1)benzothiophene
_chemical_melting_point          '237-238 C'
_chemical_formula_moiety         'C16 H8 S3'
_chemical_formula_sum            'C16 H8 S3'
_chemical_formula_weight         296.40

loop_
_atom_type_symbol
_atom_type_description
_atom_type_scat_dispersion_real
_atom_type_scat_dispersion_imag
_atom_type_scat_source
C C 0.0033 0.0016 'International Tables Vol C Tables 4.2.6.8 and 6.1.1.4'
H H 0.0000 0.0000 'International Tables Vol C Tables 4.2.6.8 and 6.1.1.4'
S S 0.1246 0.1234 'International Tables Vol C Tables 4.2.6.8 and 6.1.1.4'

_symmetry_cell_setting           orthorhombic
_symmetry_space_group_name_H-M   Pmn2(1)

loop_
_symmetry_equiv_pos_as_xyz
'x, y, z'
'-x+1/2, -y, z+1/2'
'x+1/2, -y, z+1/2'
'-x, y, z'

_cell_length_a                   25.6814(5)
_cell_length_b                   6.0774(1)
_cell_length_c                   3.8911(1)
_cell_angle_alpha                90.00
_cell_angle_beta                 90.00
_cell_angle_gamma                90.00
_cell_volume                     607.31(2)
_cell_formula_units_Z            2
_cell_measurement_temperature    120(1)
_cell_measurement_reflns_used    6077
_cell_measurement_theta_min      3.15
_cell_measurement_theta_max      35.2

_exptl_crystal_description       plate
_exptl_crystal_colour            'pale yellow'
_exptl_crystal_size_max          0.30
_exptl_crystal_size_mid          0.20
_exptl_crystal_size_min          0.08
_exptl_crystal_density_meas      ?
_exptl_crystal_density_diffrn    1.621
_exptl_crystal_density_method    'not measured'
_exptl_crystal_F_000             304
_exptl_absorpt_coefficient_mu    0.588
_exptl_absorpt_correction_type   multi-scan
_exptl_absorpt_correction_T_min  0.79
_exptl_absorpt_correction_T_max  1.00
_exptl_absorpt_process_details   
SADABS;Sheldrick1996;Blessing,ActaC.1995,A51,33


_exptl_special_details           
;
?
;

_diffrn_ambient_temperature      120(1)
_diffrn_radiation_wavelength     0.71073
_diffrn_radiation_type           MoK\a
_diffrn_radiation_source         'fine-focus sealed tube'
_diffrn_radiation_monochromator  graphite
_diffrn_measurement_device_type  'Bruker Smart6000'
_diffrn_measurement_method       'omega scans'
_diffrn_detector_area_resol_mean ?
_diffrn_standards_number         n.a.
_diffrn_standards_interval_count n.a.
_diffrn_standards_interval_time  n.a.
_diffrn_standards_decay_%        ?
_diffrn_reflns_number            3308
_diffrn_reflns_av_R_equivalents  0.0177
_diffrn_reflns_av_sigmaI/netI    0.0259
_diffrn_reflns_limit_h_min       -40
_diffrn_reflns_limit_h_max       39
_diffrn_reflns_limit_k_min       -8
_diffrn_reflns_limit_k_max       8
_diffrn_reflns_limit_l_min       -1
_diffrn_reflns_limit_l_max       6
_diffrn_reflns_theta_min         3.17
_diffrn_reflns_theta_max         35.17
_reflns_number_total             1418
_reflns_number_gt                1372
_reflns_threshold_expression     >2sigma(I)

_computing_data_collection       'SMART V.5.630'
_computing_cell_refinement       'SAINT V6.45A'
_computing_data_reduction        'SAINT V6.45A'
_computing_structure_solution    'SHELXS-97 (Sheldrick, 1990)'
_computing_structure_refinement  'SHELXL-97 (Sheldrick, 1997)'
_computing_molecular_graphics    'Diamond 2.1e'
_computing_publication_material  ?

_refine_special_details          
;
Refinement of F^2^ against ALL reflections. The weighted R-factor wR and
goodness of fit S are based on F^2^, conventional R-factors R are based
on F, with F set to zero for negative F^2^. The threshold expression of
F^2^ > 2sigma(F^2^) is used only for calculating R-factors(gt) etc. and is
not relevant to the choice of reflections for refinement. R-factors based
on F^2^ are statistically about twice as large as those based on F, and R-
factors based on ALL data will be even larger.
;

_refine_ls_structure_factor_coef Fsqd
_refine_ls_matrix_type           full
_refine_ls_weighting_scheme      calc
_refine_ls_weighting_details     
'calc w=1/[\s^2^(Fo^2^)+(0.0341P)^2^+0.1744P] where P=(Fo^2^+2Fc^2^)/3'
_atom_sites_solution_primary     direct
_atom_sites_solution_secondary   difmap
_atom_sites_solution_hydrogens   difmap
_refine_ls_hydrogen_treatment    refall
_refine_ls_extinction_method     none
_refine_ls_extinction_coef       ?
_refine_ls_abs_structure_details 'Flack H D (1983), Acta Cryst. A39, 876-881'
_refine_ls_abs_structure_Flack   0.18(17)
_refine_ls_number_reflns         1418
_refine_ls_number_parameters     105
_refine_ls_number_restraints     1
_refine_ls_R_factor_all          0.0276
_refine_ls_R_factor_gt           0.0263
_refine_ls_wR_factor_ref         0.0694
_refine_ls_wR_factor_gt          0.0687
_refine_ls_goodness_of_fit_ref   1.102
_refine_ls_restrained_S_all      1.101
_refine_ls_shift/su_max          0.001
_refine_ls_shift/su_mean         0.000

loop_
_atom_site_label
_atom_site_type_symbol
_atom_site_fract_x
_atom_site_fract_y
_atom_site_fract_z
_atom_site_U_iso_or_equiv
_atom_site_adp_type
_atom_site_occupancy
_atom_site_symmetry_multiplicity
_atom_site_calc_flag
_atom_site_refinement_flags
_atom_site_disorder_assembly
_atom_site_disorder_group
S(1) S 0.165156(12) 1.50690(6) -0.36925(18) 0.01495(9) Uani 1 1 d . . .
S(2) S 0.0000 0.84417(8) 0.18015(16) 0.01419(11) Uani 1 2 d S . .
C(1) C 0.21178(6) 1.3118(3) -0.2611(5) 0.0175(3) Uani 1 1 d . . .
H(1) H 0.2473(10) 1.338(4) -0.332(9) 0.033(6) Uiso 1 1 d . . .
C(2) C 0.19166(6) 1.1295(3) -0.1125(5) 0.0163(3) Uani 1 1 d . . .
H(2) H 0.2100(9) 1.013(3) -0.031(8) 0.020(6) Uiso 1 1 d . . .
C(3) C 0.13563(6) 1.1384(3) -0.0826(5) 0.0139(3) Uani 1 1 d . . .
C(4) C 0.10180(6) 0.9796(3) 0.0519(5) 0.0148(3) Uani 1 1 d . . .
H(4) H 0.1145(8) 0.841(4) 0.146(9) 0.024(6) Uiso 1 1 d . . .
C(5) C 0.04882(6) 1.0238(2) 0.0393(5) 0.0128(3) Uani 1 1 d . . .
C(6) C 0.02834(5) 1.2209(2) -0.1017(5) 0.0122(2) Uani 1 1 d . . .
C(7) C 0.06201(5) 1.3813(3) -0.2291(5) 0.0130(3) Uani 1 1 d . . .
H(7) H 0.0483(8) 1.517(3) -0.307(8) 0.014(6) Uiso 1 1 d . . .
C(8) C 0.11539(6) 1.3383(2) -0.2170(5) 0.0131(3) Uani 1 1 d . . .

loop_
_atom_site_aniso_label
_atom_site_aniso_U_11
_atom_site_aniso_U_22
_atom_site_aniso_U_33
_atom_site_aniso_U_23
_atom_site_aniso_U_13
_atom_site_aniso_U_12
S(1) 0.01175(14) 0.01439(17) 0.01872(16) 0.00094(13) 0.00075(14) -0.00023(10)
S(2) 0.01510(19) 0.0111(2) 0.0163(2) 0.0030(2) 0.000 0.000
C(1) 0.0122(5) 0.0193(7) 0.0210(8) -0.0020(6) -0.0001(5) 0.0015(5)
C(2) 0.0125(6) 0.0168(7) 0.0197(7) -0.0004(6) -0.0016(5) 0.0028(5)
C(3) 0.0130(5) 0.0132(6) 0.0156(6) -0.0011(6) -0.0015(5) 0.0019(5)
C(4) 0.0152(6) 0.0127(7) 0.0163(7) 0.0008(5) -0.0010(5) 0.0022(5)
C(5) 0.0143(6) 0.0104(6) 0.0136(6) 0.0005(5) -0.0003(5) 0.0002(4)
C(6) 0.0118(5) 0.0114(6) 0.0133(6) 0.0005(5) -0.0002(5) 0.0003(4)
C(7) 0.0111(5) 0.0115(6) 0.0164(6) 0.0009(5) -0.0002(5) 0.0005(4)
C(8) 0.0123(5) 0.0117(7) 0.0151(6) 0.0001(5) -0.0001(5) 0.0006(4)

_geom_special_details            
;
All esds (except the esd in the dihedral angle between two l.s. planes)
are estimated using the full covariance matrix. The cell esds are taken
into account individually in the estimation of esds in distances, angles
and torsion angles; correlations between esds in cell parameters are only
used when they are defined by crystal symmetry. An approximate (isotropic)
treatment of cell esds is used for estimating esds involving l.s. planes.
;

loop_
_geom_bond_atom_site_label_1
_geom_bond_atom_site_label_2
_geom_bond_distance
_geom_bond_site_symmetry_2
_geom_bond_publ_flag
S(1) C(1) 1.7368(16) . ?
S(1) C(8) 1.7418(16) . ?
S(2) C(5) 1.7506(16) . ?
S(2) C(5) 1.7506(16) 4 ?
C(1) C(2) 1.352(2) . ?
C(1) H(1) 0.97(3) . ?
C(2) C(3) 1.444(2) . ?
C(2) H(2) 0.91(2) . ?
C(3) C(4) 1.400(2) . ?
C(3) C(8) 1.421(2) . ?
C(4) C(5) 1.388(2) . ?
C(4) H(4) 0.97(2) . ?
C(5) C(6) 1.419(2) . ?
C(6) C(7) 1.394(2) . ?
C(6) C(6) 1.456(3) 4 ?
C(7) C(8) 1.396(2) . ?
C(7) H(7) 0.94(2) . ?

loop_
_geom_angle_atom_site_label_1
_geom_angle_atom_site_label_2
_geom_angle_atom_site_label_3
_geom_angle
_geom_angle_site_symmetry_1
_geom_angle_site_symmetry_3
_geom_angle_publ_flag
C(1) S(1) C(8) 91.25(8) . . ?
C(5) S(2) C(5) 91.48(10) . 4 ?
C(2) C(1) S(1) 113.54(11) . . ?
C(2) C(1) H(1) 128.3(16) . . ?
S(1) C(1) H(1) 117.8(16) . . ?
C(1) C(2) C(3) 112.62(14) . . ?
C(1) C(2) H(2) 126.2(15) . . ?
C(3) C(2) H(2) 121.1(15) . . ?
C(4) C(3) C(8) 119.99(13) . . ?
C(4) C(3) C(2) 128.51(14) . . ?
C(8) C(3) C(2) 111.49(14) . . ?
C(5) C(4) C(3) 117.49(14) . . ?
C(5) C(4) H(4) 120.6(13) . . ?
C(3) C(4) H(4) 121.9(13) . . ?
C(4) C(5) C(6) 122.74(14) . . ?
C(4) C(5) S(2) 124.77(12) . . ?
C(6) C(5) S(2) 112.47(11) . . ?
C(7) C(6) C(5) 119.86(13) . . ?
C(7) C(6) C(6) 128.34(8) . 4 ?
C(5) C(6) C(6) 111.76(8) . 4 ?
C(6) C(7) C(8) 117.79(14) . . ?
C(6) C(7) H(7) 119.4(13) . . ?
C(8) C(7) H(7) 122.7(13) . . ?
C(7) C(8) C(3) 122.10(14) . . ?
C(7) C(8) S(1) 126.78(12) . . ?
C(3) C(8) S(1) 111.08(11) . . ?

_diffrn_measured_fraction_theta_max 0.865
_diffrn_reflns_theta_full        35.17
_diffrn_measured_fraction_theta_full 0.865
_refine_diff_density_max         0.514
_refine_diff_density_min         -0.281
_refine_diff_density_rms         0.064



####################################################################### 
# 
# This file contains crystal structure data downloaded from the 
# Cambridge Structural Database (CSD) hosted by the Cambridge 
# Crystallographic Data Centre (CCDC).
# 
# Full information about CCDC data access policies and citation 
# guidelines are available at http://www.ccdc.cam.ac.uk/access/V1 
# 
# Audit and citation data items may have been added by the CCDC. 
# Please retain this information to preserve the provenance of 
# this file and to allow appropriate attribution of the data. 
# 
#######################################################################

data_III
_audit_block_doi                 10.5517/cc1krrbd
_database_code_depnum_ccdc_archive 'CCDC 1452794'
loop_
_citation_id
_citation_doi
_citation_year
1 10.1107/S2056989016002516 2016
_audit_update_record             
;
2016-02-10 deposited with the CCDC.	2020-08-10 downloaded from the CCDC.
;
_publcif_datablock.id            {e36841c8-0f44-4f8c-8b4e-16409682ab03}

# clave Lab: Bis-Iminas IV-R
# clave original: bimivr (ICUAP)
# clave refinamiento: BIM-IV-R_MO (IFUAP)

_database_code_CAS               ?
_database_code_CSD               ?

_audit_creation_method           SHELXL-2014/7
_shelx_SHELXL_version_number     2014/7
_audit_creation_date             2016-01-07

_chemical_name_systematic        
;
2,5-Bis[((R)-(-)-(4-fluoro)phenylethyl)iminomethyl]thiophene
;
_chemical_name_common            ?
_chemical_melting_point          420
_chemical_formula_moiety         'C22 H20 F2 N2 S'
_chemical_formula_sum            'C22 H20 F2 N2 S'
_chemical_formula_weight         382.46
_chemical_compound_source        ?
_chemical_absolute_configuration ad

_chemical_optical_rotation       '[\a]^20^~D~ = -542.5 (c=1, CHCl~3~)'

_chemical_properties_physical    ?
_chemical_properties_biological  ?
loop_
_atom_type_symbol
_atom_type_description
_atom_type_scat_dispersion_real
_atom_type_scat_dispersion_imag
_atom_type_scat_source
C C 0.0033 0.0016 'International Tables Vol C Tables 4.2.6.8 and 6.1.1.4'
H H 0.0000 0.0000 'International Tables Vol C Tables 4.2.6.8 and 6.1.1.4'
F F 0.0171 0.0103 'International Tables Vol C Tables 4.2.6.8 and 6.1.1.4'
N N 0.0061 0.0033 'International Tables Vol C Tables 4.2.6.8 and 6.1.1.4'
S S 0.1246 0.1234 'International Tables Vol C Tables 4.2.6.8 and 6.1.1.4'

_space_group_crystal_system      orthorhombic
_space_group_IT_number           18
_space_group_name_H-M_alt        'P 21 21 2'
_space_group_name_Hall           'P 2 2ab'

_shelx_space_group_comment       ?

loop_
_space_group_symop_operation_xyz
'x, y, z'
'-x, -y, z'
'x+1/2, -y+1/2, -z'
'-x+1/2, y+1/2, -z'

_cell_length_a                   21.1153(16)
_cell_length_b                   7.7846(6)
_cell_length_c                   6.1343(5)
_cell_angle_alpha                90
_cell_angle_beta                 90
_cell_angle_gamma                90
_cell_volume                     1008.32(14)
_cell_formula_units_Z            2
_cell_measurement_temperature    298(2)
_cell_measurement_reflns_used    2744
_cell_measurement_theta_max      23.1870
_cell_measurement_theta_min      3.8190

_exptl_crystal_description       prism
_exptl_crystal_colour            colourless
_exptl_crystal_density_meas      ?
_exptl_crystal_density_method    ?
_exptl_crystal_density_diffrn    1.260
_exptl_crystal_F_000             400
_exptl_transmission_factor_min   ?
_exptl_transmission_factor_max   ?
_exptl_crystal_size_max          0.8923
_exptl_crystal_size_mid          0.4743
_exptl_crystal_size_min          0.3253
_exptl_absorpt_coefficient_mu    0.186
_shelx_estimated_absorpt_T_min   ?
_shelx_estimated_absorpt_T_max   ?
_exptl_absorpt_correction_type   analytical
_exptl_absorpt_correction_T_min  0.904
_exptl_absorpt_correction_T_max  0.958
_exptl_absorpt_process_details   'CrysAlisPro, (Agilent, 2013)'

_diffrn_ambient_temperature      298(2)
_diffrn_ambient_environment      air
_diffrn_radiation_wavelength     0.71073
_diffrn_radiation_type           MoK\a
_diffrn_source                   'Enhance (Mo) X-ray Source'
_diffrn_radiation_probe          x-ray
_diffrn_radiation_monochromator  graphite
_diffrn_measurement_device       'four-circle diffractometer'
_diffrn_measurement_device_type  'Agilent Xcalibur (Atlas, Gemini)'
_diffrn_detector                 'CCD plate'
_diffrn_detector_type            Atlas
_diffrn_measurement_method       '\w scans'
_diffrn_detector_area_resol_mean 10.5564
_diffrn_reflns_number            12336
_diffrn_reflns_av_unetI/netI     0.0421
_diffrn_reflns_av_R_equivalents  0.0578
_diffrn_reflns_limit_h_min       -26
_diffrn_reflns_limit_h_max       26
_diffrn_reflns_limit_k_min       -9
_diffrn_reflns_limit_k_max       9
_diffrn_reflns_limit_l_min       -7
_diffrn_reflns_limit_l_max       7
_diffrn_reflns_theta_min         3.842
_diffrn_reflns_theta_max         26.368
_diffrn_reflns_theta_full        25.242
_diffrn_measured_fraction_theta_max 0.996
_diffrn_measured_fraction_theta_full 0.995
_diffrn_reflns_Laue_measured_fraction_max 0.996
_diffrn_reflns_Laue_measured_fraction_full 0.995
_diffrn_reflns_point_group_measured_fraction_max 0.998
_diffrn_reflns_point_group_measured_fraction_full 0.997

_diffrn_orient_matrix_UB_11      -0.0295565000
_diffrn_orient_matrix_UB_12      0.0379686000
_diffrn_orient_matrix_UB_13      0.0263684000
_diffrn_orient_matrix_UB_21      0.0141479000
_diffrn_orient_matrix_UB_22      0.0825776000
_diffrn_orient_matrix_UB_23      -0.0037781000
_diffrn_orient_matrix_UB_31      -0.0073881000
_diffrn_orient_matrix_UB_32      0.0061226000
_diffrn_orient_matrix_UB_33      -0.1125503000

_diffrn_measurement_details      
;
#__ type_ start__ end____ width___ exp.time_
  1 omega  -60.00  -14.00   1.0000    1.0000
omega____ theta____ kappa____ phi______ frames
    -      -11.2235  -57.0000 -150.0000 46

#__ type_ start__ end____ width___ exp.time_
  2 omega   -1.00   80.00   1.0000    1.0000
omega____ theta____ kappa____ phi______ frames
    -       13.2548   38.0000 -180.0000 81

#__ type_ start__ end____ width___ exp.time_
  3 omega -100.00  -53.00   1.0000    1.0000
omega____ theta____ kappa____ phi______ frames
    -      -11.2235  178.0000 -120.0000 47

#__ type_ start__ end____ width___ exp.time_
  4 omega  -90.00   22.00   1.0000    1.0000
omega____ theta____ kappa____ phi______ frames
    -      -11.2235  -77.0000  -30.0000 112

#__ type_ start__ end____ width___ exp.time_
  5 omega  -25.00   55.00   1.0000    1.0000
omega____ theta____ kappa____ phi______ frames
    -       13.2548  -99.0000 -120.0000 80

#__ type_ start__ end____ width___ exp.time_
  6 omega  -63.00    1.00   1.0000    1.0000
omega____ theta____ kappa____ phi______ frames
    -       13.2548  -38.0000    0.0000 64

#__ type_ start__ end____ width___ exp.time_
  7 omega  -25.00   55.00   1.0000    1.0000
omega____ theta____ kappa____ phi______ frames
    -       13.2548  -99.0000  150.0000 80
;

_reflns_number_total             2067
_reflns_number_gt                1591
_reflns_threshold_expression     'I > 2\s(I)'
_reflns_Friedel_coverage         0.678
_reflns_Friedel_fraction_max     1.000
_reflns_Friedel_fraction_full    1.000

_reflns_special_details          ?

_computing_data_collection       'CrysAlis PRO (Agilent, 2013)'
_computing_cell_refinement       'CrysAlis PRO'
_computing_data_reduction        'CrysAlis PRO'
_computing_structure_solution    'SHELXS-2014/7 (Sheldrick, 2015)'
_computing_structure_refinement  'SHELXL-2014/7 (Sheldrick, 2015)'
_computing_molecular_graphics    'MERCURY (Macrae et al., 2008)'
_computing_publication_material  SHELXL-2014/7

_refine_special_details          ?

_refine_ls_structure_factor_coef Fsqd
_refine_ls_matrix_type           full
_refine_ls_weighting_scheme      calc
_refine_ls_weighting_details     
'w=1/[\s^2^(Fo^2^)+(0.0384P)^2^+0.0613P] where P=(Fo^2^+2Fc^2^)/3'
_atom_sites_solution_primary     direct
_atom_sites_solution_secondary   difmap
_atom_sites_solution_hydrogens   geom
_refine_ls_hydrogen_treatment    constr
_refine_ls_extinction_method     none
_refine_ls_extinction_coef       .
_refine_ls_abs_structure_details 
;
 Flack x determined using 518 quotients [(I+)-(I-)]/[(I+)+(I-)]
 (Parsons et al., 2013).
;
_refine_ls_abs_structure_Flack   0.07(6)
_refine_ls_number_reflns         2067
_refine_ls_number_parameters     124
_refine_ls_number_restraints     0
_refine_ls_R_factor_all          0.0704
_refine_ls_R_factor_gt           0.0439
_refine_ls_wR_factor_ref         0.0918
_refine_ls_wR_factor_gt          0.0820
_refine_ls_goodness_of_fit_ref   1.061
_refine_ls_restrained_S_all      1.061
_refine_ls_shift/su_max          0.000
_refine_ls_shift/su_mean         0.000

loop_
_atom_site_label
_atom_site_type_symbol
_atom_site_fract_x
_atom_site_fract_y
_atom_site_fract_z
_atom_site_U_iso_or_equiv
_atom_site_adp_type
_atom_site_occupancy
_atom_site_site_symmetry_order
_atom_site_calc_flag
_atom_site_refinement_flags_posn
_atom_site_refinement_flags_adp
_atom_site_refinement_flags_occupancy
_atom_site_disorder_assembly
_atom_site_disorder_group
S1 S 0.5000 0.0000 1.06817(15) 0.0479(3) Uani 1 2 d S T P . .
F1 F 0.85802(10) 0.3203(3) 0.5731(5) 0.1163(9) Uani 1 1 d . . . . .
N1 N 0.58698(11) 0.3119(3) 1.0120(4) 0.0498(6) Uani 1 1 d . . . . .
C2 C 0.56853(13) 0.2830(4) 1.2046(5) 0.0479(8) Uani 1 1 d . . . . .
H2A H 0.5795 0.3610 1.3130 0.057 Uiso 1 1 calc R U . . .
C3 C 0.53102(13) 0.1344(4) 1.2646(4) 0.0461(8) Uani 1 1 d . . . . .
C4 C 0.51751(14) 0.0774(4) 1.4690(4) 0.0556(8) Uani 1 1 d . . . . .
H4A H 0.5300 0.1342 1.5953 0.067 Uiso 1 1 calc R U . . .
C5 C 0.62513(14) 0.4679(4) 0.9770(5) 0.0568(8) Uani 1 1 d . . . . .
H5A H 0.6336 0.5216 1.1185 0.068 Uiso 1 1 calc R U . . .
C6 C 0.58661(16) 0.5931(5) 0.8368(7) 0.0829(12) Uani 1 1 d . . . . .
H6A H 0.5476 0.6200 0.9094 0.124 Uiso 1 1 calc R U . . .
H6B H 0.5777 0.5412 0.6983 0.124 Uiso 1 1 calc R U . . .
H6C H 0.6105 0.6967 0.8149 0.124 Uiso 1 1 calc R U . . .
C7 C 0.68777(14) 0.4223(3) 0.8702(5) 0.0462(7) Uani 1 1 d . . . . .
C8 C 0.74419(15) 0.4799(4) 0.9563(5) 0.0577(8) Uani 1 1 d . . . . .
H8A H 0.7436 0.5427 1.0852 0.069 Uiso 1 1 calc R U . . .
C9 C 0.80144(15) 0.4470(4) 0.8567(7) 0.0697(10) Uani 1 1 d . . . . .
H9A H 0.8391 0.4873 0.9163 0.084 Uiso 1 1 calc R U . . .
C10 C 0.80134(17) 0.3551(5) 0.6707(7) 0.0689(10) Uani 1 1 d . . . . .
C11 C 0.74733(18) 0.2932(4) 0.5777(5) 0.0654(9) Uani 1 1 d . . . . .
H11A H 0.7489 0.2301 0.4491 0.078 Uiso 1 1 calc R U . . .
C12 C 0.69042(15) 0.3265(4) 0.6789(5) 0.0543(8) Uani 1 1 d . . . . .
H12A H 0.6532 0.2843 0.6184 0.065 Uiso 1 1 calc R U . . .

loop_
_atom_site_aniso_label
_atom_site_aniso_U_11
_atom_site_aniso_U_22
_atom_site_aniso_U_33
_atom_site_aniso_U_23
_atom_site_aniso_U_13
_atom_site_aniso_U_12
S1 0.0499(6) 0.0559(6) 0.0379(5) 0.000 0.000 -0.0056(6)
F1 0.0687(14) 0.1167(19) 0.164(2) -0.030(2) 0.0485(15) -0.0047(14)
N1 0.0452(14) 0.0502(15) 0.0540(16) -0.0028(11) 0.0032(11) -0.0082(12)
C2 0.0405(16) 0.054(2) 0.0489(18) -0.0073(16) -0.0043(14) -0.0028(15)
C3 0.0388(15) 0.0544(19) 0.0452(17) -0.0024(14) -0.0013(13) -0.0011(15)
C4 0.056(2) 0.071(2) 0.0396(15) -0.0040(14) -0.0020(13) -0.0115(15)
C5 0.0545(18) 0.0513(19) 0.0647(18) -0.0111(16) 0.0112(15) -0.0104(16)
C6 0.065(2) 0.060(2) 0.123(3) 0.016(2) 0.023(2) 0.0111(19)
C7 0.0468(17) 0.0403(15) 0.0514(17) 0.0001(13) 0.0002(14) -0.0063(14)
C8 0.0576(19) 0.0492(17) 0.0662(19) -0.0104(18) 0.0002(16) -0.0090(17)
C9 0.047(2) 0.064(2) 0.099(3) -0.007(2) -0.0023(19) -0.0114(17)
C10 0.054(2) 0.058(2) 0.095(3) 0.001(2) 0.021(2) -0.0009(18)
C11 0.075(2) 0.063(2) 0.0577(19) -0.0053(18) 0.011(2) 0.000(2)
C12 0.0499(18) 0.0573(19) 0.0557(18) -0.0020(16) -0.0063(16) -0.0058(17)

_geom_special_details            ?

loop_
_geom_bond_atom_site_label_1
_geom_bond_atom_site_label_2
_geom_bond_distance
_geom_bond_site_symmetry_2
_geom_bond_publ_flag
S1 C3 1.725(3) 2_655 ?
S1 C3 1.725(3) . ?
F1 C10 1.365(4) . ?
N1 C2 1.264(4) . ?
N1 C5 1.473(4) . ?
C2 C3 1.450(4) . ?
C2 H2A 0.9300 . ?
C3 C4 1.360(4) . ?
C4 C4 1.414(6) 2_655 ?
C4 H4A 0.9300 . ?
C5 C7 1.518(4) . ?
C5 C6 1.533(5) . ?
C5 H5A 0.9800 . ?
C6 H6A 0.9600 . ?
C6 H6B 0.9600 . ?
C6 H6C 0.9600 . ?
C7 C8 1.378(4) . ?
C7 C12 1.392(4) . ?
C8 C9 1.378(4) . ?
C8 H8A 0.9300 . ?
C9 C10 1.347(5) . ?
C9 H9A 0.9300 . ?
C10 C11 1.363(5) . ?
C11 C12 1.377(4) . ?
C11 H11A 0.9300 . ?
C12 H12A 0.9300 . ?

loop_
_geom_angle_atom_site_label_1
_geom_angle_atom_site_label_2
_geom_angle_atom_site_label_3
_geom_angle
_geom_angle_site_symmetry_1
_geom_angle_site_symmetry_3
_geom_angle_publ_flag
C3 S1 C3 91.4(2) 2_655 . ?
C2 N1 C5 116.8(3) . . ?
N1 C2 C3 123.2(3) . . ?
N1 C2 H2A 118.4 . . ?
C3 C2 H2A 118.4 . . ?
C4 C3 C2 127.5(3) . . ?
C4 C3 S1 111.5(2) . . ?
C2 C3 S1 120.9(2) . . ?
C3 C4 C4 112.81(18) . 2_655 ?
C3 C4 H4A 123.6 . . ?
C4 C4 H4A 123.6 2_655 . ?
N1 C5 C7 110.3(2) . . ?
N1 C5 C6 108.4(2) . . ?
C7 C5 C6 111.6(2) . . ?
N1 C5 H5A 108.8 . . ?
C7 C5 H5A 108.8 . . ?
C6 C5 H5A 108.8 . . ?
C5 C6 H6A 109.5 . . ?
C5 C6 H6B 109.5 . . ?
H6A C6 H6B 109.5 . . ?
C5 C6 H6C 109.5 . . ?
H6A C6 H6C 109.5 . . ?
H6B C6 H6C 109.5 . . ?
C8 C7 C12 117.6(3) . . ?
C8 C7 C5 120.8(3) . . ?
C12 C7 C5 121.6(3) . . ?
C7 C8 C9 121.9(3) . . ?
C7 C8 H8A 119.1 . . ?
C9 C8 H8A 119.1 . . ?
C10 C9 C8 118.2(3) . . ?
C10 C9 H9A 120.9 . . ?
C8 C9 H9A 120.9 . . ?
C9 C10 C11 122.9(3) . . ?
C9 C10 F1 118.4(3) . . ?
C11 C10 F1 118.7(3) . . ?
C10 C11 C12 118.4(3) . . ?
C10 C11 H11A 120.8 . . ?
C12 C11 H11A 120.8 . . ?
C11 C12 C7 121.1(3) . . ?
C11 C12 H12A 119.5 . . ?
C7 C12 H12A 119.5 . . ?

loop_
_geom_torsion_atom_site_label_1
_geom_torsion_atom_site_label_2
_geom_torsion_atom_site_label_3
_geom_torsion_atom_site_label_4
_geom_torsion
_geom_torsion_site_symmetry_1
_geom_torsion_site_symmetry_2
_geom_torsion_site_symmetry_3
_geom_torsion_site_symmetry_4
_geom_torsion_publ_flag
C5 N1 C2 C3 -179.6(2) . . . . ?
N1 C2 C3 C4 168.6(3) . . . . ?
N1 C2 C3 S1 -8.7(4) . . . . ?
C3 S1 C3 C4 -0.29(16) 2_655 . . . ?
C3 S1 C3 C2 177.4(3) 2_655 . . . ?
C2 C3 C4 C4 -176.7(3) . . . 2_655 ?
S1 C3 C4 C4 0.8(4) . . . 2_655 ?
C2 N1 C5 C7 124.5(3) . . . . ?
C2 N1 C5 C6 -113.0(3) . . . . ?
N1 C5 C7 C8 -129.0(3) . . . . ?
C6 C5 C7 C8 110.4(3) . . . . ?
N1 C5 C7 C12 53.2(4) . . . . ?
C6 C5 C7 C12 -67.4(4) . . . . ?
C12 C7 C8 C9 1.0(5) . . . . ?
C5 C7 C8 C9 -176.9(3) . . . . ?
C7 C8 C9 C10 -0.4(5) . . . . ?
C8 C9 C10 C11 -0.2(5) . . . . ?
C8 C9 C10 F1 -179.1(3) . . . . ?
C9 C10 C11 C12 0.0(6) . . . . ?
F1 C10 C11 C12 179.0(3) . . . . ?
C10 C11 C12 C7 0.6(5) . . . . ?
C8 C7 C12 C11 -1.1(4) . . . . ?
C5 C7 C12 C11 176.7(3) . . . . ?

_refine_diff_density_max         0.149
_refine_diff_density_min         -0.249
_refine_diff_density_rms         0.038

_shelx_res_file                  
;

    BIM-IV-R_MO.res created by SHELXL-2014/7


TITL BIM-IV-R_MO in P21212 #18
REM reset to P21212 #18
CELL 0.71073  21.1153  7.7846  6.1343  90  90  90
ZERR 2         0.0016  0.0006  0.0005   0   0   0
LATT -1
SYMM -X,-Y,+Z
SYMM 0.5+X,0.5-Y,-Z
SYMM 0.5-X,0.5+Y,-Z
SFAC C H F N S
UNIT 44 40 4 4 2

OMIT     1   0   1
OMIT     0   0   1
OMIT     2   1   0

ACTA

L.S. 12

BOND $H
CONF

FMAP 2
PLAN 15

WGHT    0.038400    0.061300
FVAR      11.02408
S1    5    0.500000    0.000000    1.068167    10.50000    0.04993    0.05588 =
         0.03792    0.00000    0.00000   -0.00556
F1    3    0.858016    0.320337    0.573105    11.00000    0.06868    0.11669 =
         0.16362   -0.03014    0.04849   -0.00469
N1    4    0.586978    0.311885    1.012008    11.00000    0.04521    0.05016 =
         0.05399   -0.00282    0.00324   -0.00819
C2    1    0.568525    0.283027    1.204566    11.00000    0.04045    0.05436 =
         0.04890   -0.00726   -0.00435   -0.00280
AFIX  43
H2A   2    0.579544    0.360959    1.313033    11.00000   -1.20000
AFIX   0
C3    1    0.531019    0.134367    1.264617    11.00000    0.03878    0.05440 =
         0.04520   -0.00239   -0.00127   -0.00111
C4    1    0.517507    0.077394    1.469024    11.00000    0.05600    0.07117 =
         0.03957   -0.00405   -0.00204   -0.01152
AFIX  43
H4A   2    0.529973    0.134205    1.595299    11.00000   -1.20000
AFIX   0
C5    1    0.625129    0.467931    0.977008    11.00000    0.05445    0.05126 =
         0.06472   -0.01110    0.01119   -0.01045
AFIX  13
H5A   2    0.633617    0.521634    1.118516    11.00000   -1.20000
AFIX   0
C6    1    0.586614    0.593148    0.836801    11.00000    0.06514    0.06016 =
         0.12337    0.01586    0.02303    0.01107
AFIX 137
H6A   2    0.547578    0.619981    0.909444    11.00000   -1.50000
H6B   2    0.577652    0.541203    0.698258    11.00000   -1.50000
H6C   2    0.610499    0.696654    0.814923    11.00000   -1.50000
AFIX   0
C7    1    0.687770    0.422324    0.870220    11.00000    0.04681    0.04032 =
         0.05138    0.00010    0.00022   -0.00631
C8    1    0.744187    0.479883    0.956277    11.00000    0.05760    0.04920 =
         0.06625   -0.01036    0.00019   -0.00901
AFIX  43
H8A   2    0.743621    0.542688    1.085227    11.00000   -1.20000
AFIX   0
C9    1    0.801439    0.447035    0.856703    11.00000    0.04691    0.06382 =
         0.09850   -0.00688   -0.00229   -0.01139
AFIX  43
H9A   2    0.839117    0.487273    0.916337    11.00000   -1.20000
AFIX   0
C10   1    0.801342    0.355078    0.670680    11.00000    0.05383    0.05770 =
         0.09504    0.00058    0.02089   -0.00091
C11   1    0.747330    0.293209    0.577684    11.00000    0.07542    0.06290 =
         0.05775   -0.00530    0.01136    0.00015
AFIX  43
H11A  2    0.748873    0.230086    0.449078    11.00000   -1.20000
AFIX   0
C12   1    0.690416    0.326497    0.678899    11.00000    0.04991    0.05729 =
         0.05567   -0.00200   -0.00625   -0.00575
AFIX  43
H12A  2    0.653151    0.284258    0.618422    11.00000   -1.20000

AFIX   0
HKLF 4

REM  BIM-IV-R_MO in P21212 #18
REM R1 =  0.0439 for    1591 Fo > 4sig(Fo)  and  0.0704 for all    2067 data
REM    124 parameters refined using      0 restraints

END

WGHT      0.0378      0.0621

REM Highest difference peak  0.149,  deepest hole -0.249,  1-sigma level  0.038
Q1    1   0.5000  0.0000  0.7900  10.50000  0.05    0.15
Q2    1   0.5000  0.5000  1.2515  10.50000  0.05    0.14
Q3    1   0.5395  0.6393  1.1882  11.00000  0.05    0.13
Q4    1   0.8320  0.3653  0.4237  11.00000  0.05    0.13
Q5    1   0.5572 -0.0226  1.8101  11.00000  0.05    0.12
Q6    1   0.5994  0.2743  1.1107  11.00000  0.05    0.12
Q7    1   0.5706  0.7959  0.9902  11.00000  0.05    0.11
Q8    1   0.8327  0.4371  1.0937  11.00000  0.05    0.11
Q9    1   0.5609  0.0622  1.5638  11.00000  0.05    0.11
Q10   1   0.7514  0.1299  0.5004  11.00000  0.05    0.11
Q11   1   0.7194  0.6138  1.1183  11.00000  0.05    0.11
Q12   1   0.8127  0.4799  0.4204  11.00000  0.05    0.11
Q13   1   0.6340  0.2493  0.4688  11.00000  0.05    0.10
Q14   1   0.5492  0.5294  1.3019  11.00000  0.05    0.10
Q15   1   0.5415  0.0616  1.3461  11.00000  0.05    0.10
;
_shelx_res_checksum              63132

_shelx_hkl_file                  
;
   0   0  -1-0.63875 3541.28   7
   0   0   1 1732.69 2658.21   2
   0   0  -1 10031.1 3408.11   5
   0   0  -2 229323. 4390.98   7
   0   0   2 230256. 3210.95   2
   0   0  -3 13151.2 1320.89   5
   0   0  -3 15234.9 1481.96   7
   0   0   3 15321.7 1378.22   5
   0   0   3 13980.7 1023.89   2
   0   0   4 2463.55 961.690   3
   0   0   4 2296.18 697.949   4
   0   0  -4 1580.90 708.096   5
   0   0   4 1990.28 776.153   5
   0   0  -4 1903.01 775.080   7
   0   0   4 3066.26 880.414   7
   0   0   4 2707.79 586.409   2
   0   0   4 2722.26 641.580   1
   0   0  -5 844.596 971.088   5
   0   0   5 40.3117 436.008   2
   0   0  -5 464.044 848.094   7
   0   0   5-90.6999 651.568   1
   0   0   5 279.731 763.283   4
   0   0   6-188.035 744.357   4
   0   0   6 1090.68 369.941   2
   0   0   6 88.9819 599.335   1
   0   0  -6-159.188 672.266   5
   0   0   7-863.469 914.019   4
   0   0   7 132.924 638.884   1
   0   0  -7 416.182 1070.50   5
   0  -1  -1 942576. 4476.71   2
   0   1   1 933420. 4230.23   6
   0   1   2 113219. 1926.35   2
   0  -1  -2 113667. 2042.31   2
   0   1  -2 111747. 2749.79   5
   0  -1  -2 100943. 3042.47   5
   0  -1  -2 100387. 3031.96   7
   0   1   2 111952. 2206.00   4
   0   1  -2 112927. 3044.48   7
   0  -1   2 110661. 2764.15   5
   0   1   3 165459. 3524.85   4
   0  -1   3 162207. 3890.34   2
   0  -1  -3 164397. 3047.91   2
   0   1  -3 165696. 4232.66   5
   0  -1   3 167045. 4489.38   7
   0   1   3 173405. 3986.54   1
   0   1  -3 166803. 4665.83   7
   0   1   3 172699. 2989.26   2
   0  -1   3 167792. 4298.54   5
   0  -1  -3 170917. 4788.25   7
   0  -1  -3 167040. 4678.06   5
   0   1   4 29536.2 2853.73   3
   0   1   4 24951.6 1811.97   1
   0   1  -4 25078.0 2226.56   7
   0   1  -4 22375.2 1904.03   5
   0  -1   4 27159.8 2208.06   7
   0   1   4 22239.0 1277.49   2
   0   1   4 26066.3 1730.21   4
   0  -1  -4 27444.0 2320.25   7
   0  -1  -4 24288.1 2160.84   5
   0  -1   4 26100.4 2116.79   5
   0  -1   4 22788.7 1671.12   2
   0   1   4 27222.2 2212.67   5
   0   1  -5 16313.2 2097.40   7
   0  -1   5 17829.3 1444.41   1
   0   1   5 15649.6 1626.82   4
   0   1   5 17901.7 1815.63   1
   0   1  -5 14036.8 1840.38   5
   0  -1  -5 16919.9 2103.74   5
   0  -1   5 15784.1 1593.54   2
   0   1   5 15723.2 1233.36   2
   0   1   6 709.694 695.952   4
   0  -1   6 135.148 494.375   2
   0   1  -6-2119.09 1255.40   7
   0  -1  -6 1320.80 1150.84   5
   0  -1   6 25.6182 751.289   6
   0   1   6-264.504 352.218   2
   0  -1   6 70.0055 528.218   1
   0  -1   6 649.930 744.278   4
   0   1   6 245.888 737.162   1
   0   1  -7 1688.77 1270.45   7
   0  -1  -7 1309.30 1288.74   5
   0  -1   7 761.692 1088.89   4
   0   1   7 1197.56 797.174   1
   0   1   7 782.190 847.953   4
   0  -2   0 47781.1 1435.52   1
   0   2   1 642521. 5572.15   6
   0  -2  -1 657128. 5535.11   6
   0  -2   1 696869. 4012.68   1
   0   2   1 688282. 4613.20   4
   0   2  -1 719494. 5712.09   7
   0  -2  -1 688720. 4135.00   4
   0  -2  -1 706200. 6749.09   5
   0   2   2 93686.2 1624.50   4
   0  -2   2 101704. 2756.57   7
   0  -2   2 97437.4 2585.88   5
   0  -2  -2 94903.4 1755.22   4
   0   2  -2 87653.5 2778.79   7
   0   2   2 94905.8 1894.79   6
   0  -2  -2 95705.8 3157.03   5
   0   2   2 102299. 3155.53   3
   0  -2  -2 92443.4 2047.12   2
   0  -2  -3 5224.96 1084.55   5
   0   2   3 4730.85 444.133   6
   0  -2  -3 4992.08 604.305   2
   0  -2   3 5237.81 874.678   7
   0   2   3 4109.40 534.399   4
   0  -2   3 3924.91 772.472   5
   0   2   3 6782.27 1131.65   3
   0   2   3 5486.65 922.317   1
   0   2  -3 3737.37 888.261   7
   0  -2  -4 1530.81 379.217   2
   0   2   4-100.481 422.842   3
   0  -2   4 1733.15 659.456   7
   0   2   4 1924.46 712.558   1
   0  -2   4 2326.28 703.544   5
   0  -2  -4 1755.32 756.506   5
   0   2   4 1051.73 238.049   6
   0  -2   4 1558.79 684.092   2
   0   2  -4 1896.71 742.431   7
   0   2   4 1588.80 466.279   4
   0  -2  -5 18906.2 2255.20   5
   0   2   5 22797.4 1695.44   4
   0  -2   5 19109.0 1902.89   2
   0  -2   5 19787.1 1249.44   1
   0   2   5 20790.8 2083.93   1
   0   2   5 18212.3 694.729   6
   0   2   5 17917.4 696.478   6
   0   2  -5 20112.2 2344.08   7
   0  -2   5 14192.9 1847.27   6
   0   2  -6 4354.94 1116.30   7
   0  -2  -6 1554.48 1076.22   5
   0   2   6 2360.81 766.446   4
   0  -2   6 1612.80 493.052   1
   0  -2   6 1260.77 712.858   2
   0   2   6 1948.75 911.101   1
   0   2  -7 2954.03 999.504   7
   0  -2  -7 2000.67 1344.52   5
   0  -2   7 1849.20 1235.92   4
   0   2   7 2454.97 1200.08   1
   0  -2   7 1853.38 726.875   2
   0  -3   0 12.0036 320.196   6
   0   3   0-43.1807 269.040   1
   0  -3   0 126.993 151.662   3
   0  -3   0 167.513 221.289   1
   0   3  -1 30549.6 1400.92   7
   0  -3  -1 30621.6 1210.49   4
   0  -3  -1 30809.0 1647.00   5
   0  -3  -1 28547.2 1556.42   6
   0  -3   1 28253.6 1148.98   1
   0   3  -1 30195.9 1127.12   1
   0  -3   2 325405. 2987.85   1
   0  -3  -2 322007. 6200.62   5
   0  -3  -2 313265. 3222.28   4
   0   3   2 329975. 4920.65   3
   0   3  -2 310522. 5301.20   7
   0   3   2 324464. 4628.12   6
   0   3   2 322619. 3521.24   4
   0  -3   2 312278. 5220.14   7
   0  -3  -2 326110. 4550.10   6
   0   3   3 31849.8 2194.18   1
   0  -3   3 31638.1 1983.75   7
   0   3   3 30614.3 2169.12   3
   0  -3   3 27072.9 711.145   1
   0  -3   3 28163.5 1816.52   5
   0  -3  -3 28292.7 1456.00   2
   0   3   3 30369.7 2183.42   7
   0   3   3 30154.8 1282.79   6
   0   3   3 27602.1 1044.95   4
   0  -3  -3 28303.7 2272.22   5
   0   3  -3 29172.4 2059.55   7
   0   3   4 15398.5 1749.34   1
   0  -3  -4 15595.5 1933.65   5
   0  -3   4 15553.6 631.983   1
   0  -3   4 16055.4 1924.65   6
   0   3   4 15138.5 742.907   6
   0   3   4 17007.1 1993.97   3
   0  -3   4 15195.1 1571.40   5
   0  -3  -4 16782.4 1212.13   2
   0  -3   4 19343.5 1820.39   7
   0   3   4 16426.0 970.823   4
   0   3  -4 17786.9 1890.26   7
   0  -3  -5 10502.0 1899.21   5
   0  -3  -5 12117.5 1045.74   2
   0  -3   5 11259.3 615.860   1
   0  -3   5 11474.7 1667.79   5
   0   3   5 12936.4 1058.61   4
   0  -3   5 10905.0 1692.92   2
   0   3   5 9383.66 1629.65   1
   0   3  -5 12819.1 1932.93   7
   0   3   6 13547.9 2053.41   1
   0   3  -6 10090.6 2059.64   7
   0  -3   6 9255.05 1626.03   2
   0  -3  -6 11607.9 2296.86   5
   0   3   7-454.239 1205.14   1
   0  -3  -7 1719.27 1299.95   5
   0  -3   7 2176.89 752.135   2
   0  -3   7 2353.69 1411.08   4
   0   3  -7 578.685 1132.44   7
   0  -4   0 8283.40 585.720   3
   0  -4   0 10089.2 1236.90   6
   0   4   0 8266.45 911.087   1
   0   4  -1 113310. 3057.17   7
   0  -4  -1 122088. 3614.33   5
   0   4  -1 114267. 2622.35   1
   0  -4  -1 118495. 2943.64   4
   0   4   1 119448. 3658.95   1
   0  -4   1 127580. 3885.22   3
   0  -4   1 114399. 2770.71   1
   0  -4  -1 119646. 3741.18   6
   0  -4   2 64367.1 1742.97   1
   0  -4  -2 66135.0 3130.18   5
   0  -4  -2 66391.2 1749.29   4
   0  -4  -2 66224.0 2549.07   6
   0   4  -2 63926.5 2590.11   7
   0   4   3 1966.39 792.234   7
   0  -4   3 2924.58 1061.62   3
   0  -4   3 2146.50 1010.89   6
   0  -4  -3 1880.33 300.422   4
   0   4   3 2103.10 912.107   1
   0  -4  -3 1663.22 861.578   5
   0   4   3 1881.46 607.253   3
   0  -4  -3 2608.06 561.902   2
   0   4  -3 1159.81 676.723   7
   0  -4   3 2033.94 646.969   5
   0  -4  -4-205.817 597.406   5
   0   4  -4-898.927 646.985   7
   0  -4  -4 103.958 234.746   2
   0   4   4-99.7580 65.1598   4
   0  -4   4 305.184 591.644   5
   0   4   4 457.576 345.857   3
   0   4   4-98.4197 698.659   1
   0   4   5 2055.14 309.547   4
   0  -4  -5 1052.92 1088.46   5
   0   4   5 2826.61 1068.73   1
   0  -4   5 1038.83 983.143   5
   0   4  -5 2104.16 1004.50   7
   0   4   5 2209.57 783.453   3
   0  -4   5 1366.72 854.863   2
   0   4  -6 3274.80 1199.48   7
   0  -4   6 1838.80 953.325   2
   0  -4  -6-31.0819 1318.76   5
   0   4   6 1010.12 1148.57   1
   0  -5   0 11.2640 83.0316   3
   0  -5   0-647.941 430.568   5
   0  -5   0-143.447 496.281   6
   0  -5   0 88.2861 348.060   4
   0   5   0 363.580 461.449   1
   0   5  -1 143.968 365.149   1
   0  -5   1 411.777 649.546   6
   0  -5   1 574.008 365.502   3
   0  -5  -1 520.488 474.649   5
   0  -5  -1 518.709 441.348   4
   0  -5  -1 693.116 519.966   6
   0   5   1-137.552 549.481   1
   0  -5   2 11271.2 1646.88   3
   0   5  -2 11554.2 1231.69   7
   0  -5  -2 9834.08 1422.16   5
   0  -5  -2 9767.59 1218.35   6
   0   5   2 12175.1 1544.09   1
   0  -5  -2 10857.5 894.742   4
   0  -5  -3 30120.5 1948.50   6
   0  -5  -3 27825.0 2549.03   5
   0   5  -3 30060.1 2308.18   7
   0  -5  -3 28766.9 1103.75   4
   0   5   3 29111.1 2488.01   1
   0  -5  -3 28639.9 1879.53   2
   0  -5   3 31346.8 3136.63   3
   0  -5  -4 18703.2 1564.45   2
   0   5  -4 17385.4 2064.72   7
   0   5   4 15695.2 2181.45   1
   0  -5   4 17534.0 1876.07   5
   0  -5  -4 16129.1 2232.48   5
   0   5   4 20958.4 1898.31   3
   0   5   5 4381.23 1494.64   1
   0   5  -5 6386.00 1444.59   7
   0  -5  -5 5337.83 1611.26   5
   0   5   6 2425.23 1069.07   1
   0  -5  -6 2938.17 1489.11   5
   0   5  -6 1792.52 996.621   7
   0  -5   6 444.848 1298.25   2
   0   6   0 24449.7 1905.75   1
   0  -6   0 25115.2 2260.45   4
   0  -6   0 23540.0 1887.33   5
   0  -6  -1 5906.40 1115.38   5
   0   6  -1 5930.30 1014.25   7
   0  -6  -1 6929.66 1304.53   6
   0   6   1 4263.84 1041.68   1
   0  -6  -1 5034.65 932.232   4
   0   6  -1 5719.09 901.396   1
   0  -6   1 5019.24 856.827   3
   0  -6  -2 8760.02 1437.62   5
   0  -6   2 9191.36 1519.97   3
   0   6   2 9394.65 1524.26   1
   0  -6  -2 8107.57 906.381   4
   0  -6  -2 7346.37 1262.31   6
   0   6  -2 7851.22 1136.14   7
   0  -6  -3 39098.1 3235.79   5
   0  -6  -3 39976.9 2540.95   6
   0   6   3 42314.9 3177.30   1
   0  -6   3 44126.4 3812.83   3
   0  -6  -3 40901.6 1449.48   4
   0   6  -3 40462.7 2830.50   7
   0   6  -4 485.924 786.453   7
   0   6   4 1592.73 1160.59   1
   0  -6  -4 1760.26 835.633   5
   0   6   5 1567.22 1070.14   1
   0  -6  -5-468.706 992.194   5
   0   6  -5 1868.70 826.550   7
   0  -6   6-534.296 825.379   2
   0   6  -6 551.851 1090.88   7
   0  -6  -6-1447.15 1184.49   5
   0  -7   0 780.995 723.639   4
   0  -7   0 381.380 561.929   5
   0   7   0 842.160 673.215   1
   0   7  -1 2505.50 885.593   7
   0   7  -1 2064.03 675.053   1
   0  -7  -1 3556.45 839.954   4
   0  -7  -1 1756.71 774.250   5
   0   7   1 1426.92 897.520   1
   0  -7   1 3579.99 736.576   3
   0  -7  -2 1379.91 945.844   5
   0   7  -2 1087.86 651.061   7
   0  -7  -2 1571.51 452.261   4
   0  -7   2 2323.54 751.850   3
   0   7   2 749.061 658.421   1
   0   7  -3-719.923 699.035   7
   0  -7  -3 53.8645 437.155   5
   0   7   3-383.986 757.725   1
   0   7   4 16457.9 2307.13   1
   0   7  -4 12673.6 1950.80   7
   0  -7  -4 9605.31 1998.58   5
   0   7  -5 2769.66 1273.67   7
   0  -7  -5 4777.20 1555.29   5
   0   7   5 5476.64 1617.42   1
   0  -8   0 2625.13 758.917   5
   0   8   0 513.386 594.861   1
   0  -8   1 124.110 647.559   5
   0   8  -1 1656.38 680.198   7
   0  -8  -1 1153.01 672.166   5
   0   8   1-398.700 876.321   1
   0  -8  -2 44.1395 808.422   5
   0   8  -2-1080.31 629.501   7
   0   8   2 201.301 703.284   1
   0   8  -3 47.5730 629.666   7
   0   8   3 752.142 964.499   1
   0   8   4-2283.86 1379.68   1
   0   8  -4-1722.89 967.965   7
   0  -9   0-339.119 472.955   5
   0   9   0-56.3614 532.444   1
   0   9  -1 178.638 541.842   7
   0   9   1 1315.00 831.144   1
   0  -9   1-936.819 733.026   5
   0  -9  -1-305.137 692.355   5
   0   9   2 1018.76 1049.26   1
   0  -9  -2 1081.98 586.830   5
  -1   0  -1 5267.15 3012.43   7
   1   0  -1-0.33104 2068.43   1
   1   0  -1 120.566 2776.73   5
  -1   0  -1 8753.37 3012.14   5
  -1   0   1-0.48944 2694.10   2
   1   0  -2 1172.21 347.439   2
  -1   0  -2 892.073 448.716   5
   1   0   2 1204.40 282.394   2
  -1   0   2 1444.33 440.748   5
  -1   0   2 938.953 339.249   2
   1   0   2 1070.17 371.942   4
   1   0   2 1024.98 553.412   3
   1   0  -2 999.695 481.012   7
  -1   0   2 1359.02 309.516   1
   1   0  -2 680.981 372.518   5
  -1   0  -2 1014.13 433.373   7
  -1   0   3 12542.3 1264.00   5
  -1   0  -3 12571.8 1336.96   5
  -1   0   3 11905.3 1004.44   2
   1   0  -3 12689.1 1279.72   5
   1   0   3 13304.3 935.026   2
   1   0  -3 14409.5 1474.10   7
   1   0   3 11373.3 1286.38   5
   1   0   3 11742.0 1638.67   3
   1   0   3 10635.0 1142.05   4
  -1   0   3 12306.7 954.876   1
  -1   0  -3 11860.1 1320.26   7
  -1   0  -4 1614.26 715.002   5
   1   0   4 3484.04 892.310   7
   1   0   4 1149.81 880.197   3
   1   0   4 2009.92 747.896   4
   1   0  -4 2419.49 799.227   7
  -1   0   4 1816.24 586.959   1
   1   0  -4 907.786 684.436   5
  -1   0   4 2170.50 725.599   5
  -1   0  -4 2365.84 907.843   7
  -1   0   4 1403.56 528.700   2
   1   0   4 2052.69 761.704   5
   1   0   4 2238.43 516.836   2
   1   0  -5 40050.6 3004.03   5
   1   0   5 43223.8 2460.92   1
   1   0  -5 39615.4 3229.72   7
  -1   0   5 44838.2 2418.06   1
   1   0   5 39609.8 2050.76   2
  -1   0  -5 41786.2 3263.94   7
   1   0   5 40166.6 2744.19   4
  -1   0   5 42474.7 2746.92   4
  -1   0  -5 40775.6 3079.47   5
   1   0   5 44176.0 2180.26   6
  -1   0   5 39566.5 2292.36   2
   1   0   6 1280.83 373.805   2
  -1   0   6 708.650 593.230   2
  -1   0   6 1241.57 718.187   1
   1   0  -6 740.043 921.282   5
   1   0   6 45.9733 732.678   4
  -1   0   6 954.951 771.550   4
   1   0  -6 820.231 841.075   7
  -1   0  -6 161.989 868.292   5
   1   0   6 436.205 687.645   1
   1   0   7-601.171 757.599   1
  -1   0  -7 889.997 790.603   5
   1   0   7 161.884 782.384   4
  -1   0   7-55.5152 669.896   1
   1   0  -7 1317.49 983.825   5
  -1   0   7-284.837 842.894   4
  -1   1   7 2773.21 1023.14   4
   1  -1   7 2694.96 1343.06   4
  -1   1   7 3046.97 1068.24   1
  -1  -1  -7 2023.49 1470.50   5
   1   1  -7 3930.42 1500.37   7
  -1   1   6 12320.5 1251.33   2
   1  -1   6 12378.7 1587.41   6
   1  -1   6 10749.1 1807.90   4
  -1  -1  -6 11681.8 2034.44   5
   1  -1   6 10797.3 1381.74   2
  -1   1   6 9932.84 1479.50   1
   1   1  -6 10746.5 2016.04   7
   1   1  -6 12245.6 1826.26   5
  -1   1   6 11628.0 1527.06   4
   1  -1   6 10965.9 1338.84   1
   1  -1   5 16629.4 1674.44   6
   1   1  -5 16765.3 1907.33   5
   1  -1   5 17477.2 1651.42   2
  -1   1   5 15739.1 1724.17   1
   1   1  -5 15198.8 2147.02   7
   1  -1   5 15356.5 1878.27   4
   1  -1   5 15828.8 1381.73   1
  -1   1   5 17806.0 1424.66   2
  -1  -1  -5 14643.2 2038.77   5
  -1   1   5 15470.8 1587.38   4
   1  -1   4 1103.93 725.096   5
  -1  -1  -4 1204.85 761.531   5
   1  -1   4 1068.58 504.865   6
   1  -1   4 505.149 646.227   3
  -1   1   4 1512.54 595.152   4
  -1   1   4 2142.00 734.830   5
   1   1  -4 1100.05 596.495   5
  -1   1   4 1013.73 445.859   2
   1   1  -4 1235.17 740.937   7
  -1   1   4 1004.81 635.915   7
  -1   1   4 1905.72 660.567   1
   1  -1   4 1117.18 513.066   2
   1  -1   4 827.718 749.305   7
   1  -1   3 56027.3 2585.73   5
  -1   1   3 57145.8 1936.52   2
  -1  -1  -3 51338.0 2724.80   5
   1   1  -3 56440.8 2770.35   7
  -1   1   3 53974.0 1974.57   4
   1  -1   3 57948.0 2656.90   7
  -1   1   3 57894.9 2353.14   1
   1   1  -3 54567.0 2419.44   5
   1  -1   3 57790.6 3588.86   3
  -1   1   2 165202. 2685.26   2
  -1   1   2 155624. 3229.35   1
  -1  -1  -2 158182. 2034.37   2
  -1   1   2 166311. 2518.30   4
   1  -1   2 157999. 3448.28   5
  -1  -1  -2 147678. 3715.22   5
   1   1  -2 163270. 3752.91   7
   1  -1   2 161695. 3497.07   7
   1   1  -2 167243. 3224.01   5
   1  -1   2 174420. 4937.86   3
  -1  -1  -1 271329. 2656.41   4
   1   1  -1 278083. 3449.53   7
  -1  -1  -1 282181. 3831.19   5
  -1   1   1 283906. 2907.10   6
  -1  -1  -1 286373. 3892.87   3
   1  -1  -1 293507. 3730.42   5
   1   1   1 286618. 2637.09   4
   1  -1  -1 279879. 2946.96   2
  -1  -1   1 286339. 2722.26   5
   1  -1  -1 294138. 3653.31   7
   1   1   1 287449. 3715.81   3
   1  -1  -1 291740. 3504.25   1
  -1  -1   2 164794. 1951.42   1
  -1  -1   2 162763. 3185.68   5
   1   1   2 164007. 4283.14   3
   1  -1  -2 164617. 3827.00   7
   1   1   2 161285. 1844.22   2
   1  -1  -2 165618. 2799.85   2
  -1  -1   2 166265. 3502.96   2
   1   1   2 163353. 2817.51   4
  -1   1  -2 160088. 3611.75   7
   1  -1  -2 156559. 3691.93   5
  -1   1  -3 55609.3 2535.73   5
   1   1   3 56975.6 2157.61   4
   1  -1  -3 59000.5 2807.12   5
  -1  -1   3 55505.2 2402.60   2
   1  -1  -3 60838.7 2059.28   2
   1  -1  -3 59362.9 2903.65   7
   1   1   3 64299.8 3463.08   3
  -1  -1   3 52564.9 2401.79   5
   1   1   3 59926.8 1552.57   2
  -1   1  -3 54061.2 2704.36   7
  -1  -1   3 57724.0 1654.45   1
   1   1   4 172.338 520.019   3
   1  -1  -4 1038.49 369.646   2
  -1  -1   4 1123.36 535.175   2
   1  -1  -4 792.932 680.748   7
  -1  -1   4 1202.67 372.586   1
  -1  -1   4 1763.25 697.941   5
   1   1   4 1045.74 559.538   5
   1  -1  -4 1213.46 651.870   5
  -1   1  -4 794.956 641.354   7
   1   1   4 1005.95 731.312   7
   1   1   4 906.311 535.451   4
  -1  -1   4 698.255 584.009   7
   1   1   4 911.346 349.362   2
  -1   1  -4 929.824 691.478   5
   1   1   5 16906.9 1705.13   4
   1   1   5 15822.3 1114.90   2
   1   1   5 17313.8 1790.87   1
  -1   1  -5 15330.4 2134.31   7
   1  -1  -5 18548.2 2287.46   7
   1   1   5 16474.0 981.226   6
  -1   1  -5 14552.1 1918.11   5
  -1  -1   5 16776.3 1711.00   2
  -1  -1   5 17924.2 1394.49   1
   1  -1  -5 17623.6 2170.68   5
  -1  -1   6 11317.3 1474.80   2
   1   1   6 12972.4 1686.76   1
   1   1   6 11016.5 951.004   2
  -1  -1   6 14068.0 1354.39   1
  -1  -1   6 8656.62 1718.26   4
   1  -1  -6 14069.9 2092.78   5
   1   1   6 11532.1 1572.14   4
  -1   1  -6 12906.4 2098.70   7
  -1  -1   7 3749.90 956.686   2
   1   1   7 3225.89 1086.90   4
  -1   1  -7 6463.98 1654.04   7
   1   1   7 4654.09 1309.65   1
  -1  -1   7 5682.54 1504.58   4
   1  -1  -7 4215.32 1356.51   5
   1  -2   7 1205.43 570.451   2
   1   2  -7 1186.43 1196.47   7
  -1  -2  -7-609.959 1708.42   5
   1  -2   7 744.467 1042.83   4
  -1   2   7 382.585 712.447   1
   1  -2   6 3147.03 952.036   2
   1   2  -6 2766.16 1128.18   7
  -1   2   6 1578.95 953.565   1
   1  -2   6 509.346 1219.90   4
   1  -2   6 2347.52 589.788   1
  -1   2   6 1581.10 741.801   4
  -1  -2  -6 973.141 1045.58   5
  -1  -2  -5 2673.47 1177.81   5
   1  -2   5 4134.46 1002.82   2
   1   2  -5 4395.65 1250.98   7
  -1   2   5 3614.17 735.816   4
   1  -2   5 3646.59 1004.96   6
  -1   2   5 3617.74 541.723   6
  -1   2   5 3473.25 1040.90   1
  -1   2   4 22403.8 1332.51   4
  -1   2   4 23964.0 2128.86   5
   1  -2   4 23117.3 2004.10   7
  -1   2   4 21809.8 1905.20   1
  -1  -2  -4 21186.7 1110.85   2
   1   2  -4 19206.5 2031.82   7
  -1   2   4 21927.2 1145.01   6
   1  -2   4 23128.3 2002.19   6
  -1  -2  -4 23188.9 2239.51   5
  -1   2   4 23580.1 2478.24   3
   1  -2   4 21153.4 1935.68   5
   1  -2   3 49699.0 3480.62   3
   1  -2   3 44704.5 2314.48   5
  -1   2   3 43576.2 2579.74   7
  -1  -2  -3 42605.7 1421.89   2
  -1   2   3 45212.2 1411.85   4
  -1   2   3 48280.5 1584.81   6
   1   2  -3 51513.4 2681.67   7
  -1  -2  -3 41479.2 2573.79   5
   1  -2   3 50430.1 2642.33   6
   1  -2   3 47196.1 2372.60   7
  -1   2   3 49319.9 2446.48   1
   1  -2   2 19792.0 1822.15   3
  -1   2   2 19994.8 1015.34   6
   1  -2   2 19801.8 1504.89   6
  -1  -2  -2 16375.5 1420.42   5
  -1   2   2 18112.4 1367.38   7
  -1  -2  -2 18241.5 831.788   2
  -1   2   2 17794.2 558.589   4
  -1  -2  -2 17396.7 890.872   4
   1  -2   2 19825.3 1246.34   7
   1   2  -2 18346.6 1332.94   7
  -1  -2  -1 16962.7 1095.15   5
  -1  -2  -1 17900.8 896.546   3
   1  -2   1 18550.1 1333.97   3
   1  -2   1 18308.7 756.122   1
  -1  -2  -1 18416.8 928.492   6
   1   2  -1 16669.1 988.259   7
   1   2  -1 16574.0 565.529   1
  -1  -2  -1 17343.3 793.075   4
  -1   2   1 17558.2 1028.67   6
   1   2   0 756864. 5581.87   1
   1  -2   0 768170. 5792.84   1
  -1  -2   0 753779. 5067.87   5
  -1  -2   0 748729. 6701.35   4
  -1   2   0 743041. 7032.60   6
  -1   2  -1 19018.7 925.253   7
   1  -2  -1 16778.7 1089.46   5
   1   2   1 17055.7 818.810   4
   1  -2  -1 16015.8 950.657   6
   1  -2  -1 15604.3 1031.59   1
   1  -2  -1 17337.5 563.294   4
  -1  -2   2 16905.4 1050.61   5
   1  -2  -2 18577.8 1447.56   5
   1   2   2 17925.2 856.453   4
   1   2   2 19485.8 1404.80   3
  -1  -2   2 18050.4 1233.79   7
  -1   2  -2 18389.7 1283.42   7
   1  -2  -2 19159.0 1051.65   2
   1  -2  -3 45524.4 1822.78   2
   1  -2  -3 44518.5 2615.11   5
  -1  -2   3 45820.7 1029.39   1
  -1  -2   3 46898.2 2370.81   7
  -1   2  -3 48022.2 2516.38   7
   1   2   3 42232.4 1621.24   4
  -1  -2   3 41211.0 2086.75   5
   1   2   3 41119.7 2690.21   3
  -1  -2   4 21603.4 981.980   1
   1   2   4 21722.5 1874.35   1
  -1  -2   4 22840.1 1957.43   2
   1   2   4 23975.6 1546.11   4
   1   2   4 22977.6 2452.02   3
  -1   2  -4 22680.4 2109.41   7
  -1  -2   4 23322.9 1894.26   5
   1  -2  -4 20003.7 2029.49   5
   1  -2  -4 22431.3 1445.78   2
  -1  -2   4 24248.8 2050.92   7
  -1  -2   5 2974.02 489.559   1
  -1   2  -5 3772.69 1192.18   7
   1   2   5 5489.03 969.630   4
   1  -2  -5 4464.97 1293.45   5
  -1  -2   5 3478.65 917.428   2
   1  -2  -5 3565.58 680.693   2
  -1  -2   5 5233.80 1021.92   5
   1   2   5 3865.05 1137.57   1
  -1  -2   6 894.770 486.263   2
  -1  -2   6 2101.23 531.386   1
   1   2   6 1939.24 913.578   1
  -1   2  -6 290.030 649.885   7
   1   2   6 1115.84 675.249   4
   1  -2  -6 1526.13 1146.58   5
  -1  -2   7 1107.48 777.098   2
   1   2   7 278.255 949.635   1
   1  -2  -7 967.707 842.850   5
  -1  -2   7 184.155 979.793   4
  -1   2  -7-706.415 708.223   7
  -1  -3  -7 3189.82 1459.10   5
   1   3  -7 4903.03 1834.85   7
   1  -3   7 4549.96 1202.28   2
   1  -3   7 3701.55 1474.82   4
  -1   3   7 4240.98 1256.57   1
  -1   3   6 95.0542 812.484   1
   1  -3   6-1322.11 794.460   2
  -1  -3  -6 810.254 1223.60   5
   1   3  -6 1095.21 1234.00   7
  -1  -3  -5 534.243 251.227   2
   1  -3   5 1335.23 521.166   2
  -1   3   5 1024.75 756.127   1
  -1   3   5 1214.86 237.517   6
  -1  -3  -5 429.710 774.584   5
  -1   3   5 615.799 328.164   4
   1  -3   5 1321.82 295.513   1
   1   3  -5 1067.49 865.063   7
   1  -3   4 767.882 720.564   5
  -1  -3  -4 2436.24 475.337   2
   1   3  -4 2694.81 966.612   7
  -1   3   4 2732.63 968.387   1
   1  -3   4 2171.26 756.066   7
  -1  -3  -4 2295.04 842.119   5
  -1   3   4 1992.67 756.816   3
   1  -3   4 1410.17 836.106   6
  -1   3   4 2104.10 345.811   4
  -1   3   4 2338.38 434.277   6
  -1  -3  -3 1952.87 722.232   5
   1   3  -3 1889.41 658.717   7
   1  -3   3 1445.01 597.422   7
  -1   3   3 1201.03 502.839   3
  -1   3   3 1973.21 466.888   6
  -1  -3  -3 1784.33 414.194   2
   1  -3   3 857.289 713.633   3
  -1   3   3 1332.31 198.151   4
  -1   3   3 1457.94 594.234   7
  -1  -3  -3 1334.29 344.013   4
   1  -3   3 1359.47 609.929   5
   1  -3   3 2858.17 812.351   6
  -1   3   3 2204.69 721.514   1
   1   3  -2 94074.1 3020.08   7
  -1   3   2 93308.4 2732.18   3
  -1  -3  -2 81065.0 3204.31   5
  -1  -3  -2 97093.1 2091.47   4
  -1   3   2 86834.2 3042.62   7
  -1   3   2 88421.2 2565.53   6
   1  -3   2 91567.8 4001.52   3
  -1  -3  -2 92979.2 2340.31   6
   1  -3   2 90923.8 2731.38   7
   1  -3   2 89000.0 1800.09   1
  -1   3   1 165548. 3739.93   6
   1  -3   1 154802. 3980.86   3
   1   3  -1 157873. 2467.55   1
  -1  -3  -1 148329. 3534.63   5
  -1  -3  -1 159145. 2904.30   4
   1  -3   1 152891. 2732.39   1
   1   3  -1 164324. 3406.56   7
  -1  -3  -1 157221. 3460.18   6
  -1  -3   0 29082.0 1643.62   4
   1  -3   0 32162.8 982.117   3
  -1  -3   0 34472.4 1871.22   6
  -1  -3   0 31706.2 1347.56   5
  -1   3   0 31298.6 1441.55   1
   1  -3   0 32093.7 1471.07   1
   1   3   0 31152.8 1437.12   1
   1  -3  -1 167430. 2670.83   4
   1  -3  -1 163097. 3726.57   1
   1  -3  -1 166339. 3755.66   6
  -1   3  -1 160431. 2944.01   7
   1  -3  -2 90758.8 3341.66   5
   1  -3  -2 87281.6 1310.77   4
   1  -3  -2 86938.9 2542.10   6
   1   3   2 96351.9 2155.54   4
   1   3   2 97339.5 2691.63   3
   1  -3  -2 90774.2 2569.36   2
  -1   3  -2 93043.0 2891.24   7
   1  -3  -3 1039.02 716.622   5
  -1  -3   3 1742.52 699.335   7
   1  -3  -3 1566.56 462.700   2
   1   3   3 316.070 462.797   3
   1   3   3 1069.35 323.071   4
  -1   3  -3 2043.46 676.250   7
   1   3   3 2508.39 672.252   7
  -1  -3   3 1398.40 513.023   5
  -1   3  -4 2735.41 841.184   7
   1   3   4 1863.70 441.798   4
   1   3   4 2920.46 888.502   1
   1   3   4 3423.56 962.152   3
   1  -3  -4 2174.55 502.323   2
  -1  -3   4 2598.62 921.734   7
  -1  -3   4 1764.69 675.032   2
   1  -3  -4 2373.45 958.499   5
  -1  -3   4 2138.83 721.459   5
   1   3   5 1589.49 837.890   1
   1   3   5 829.467 486.687   4
  -1   3  -5 1689.11 1051.31   7
   1  -3  -5 817.366 468.072   2
  -1  -3   5 1731.87 703.857   5
   1  -3  -5 1619.56 1048.90   5
  -1  -3   5 586.327 672.455   2
  -1   3  -6 827.173 642.360   7
   1   3   6 155.650 473.414   4
  -1  -3   6-1409.29 610.921   2
   1  -3  -6 924.585 1073.28   5
   1   3   6 590.676 853.048   1
  -1   3  -7 4446.62 1382.27   7
   1  -3  -7 3346.68 1579.22   5
   1   3   7 3711.96 1304.44   1
  -1  -3   7 3793.10 1014.97   2
   1   4  -6 1509.22 1065.76   7
   1  -4   6 3213.14 1198.24   2
  -1  -4  -6 1511.49 1060.07   5
  -1   4   6 1829.87 1266.39   1
  -1  -4  -5-43.3884 581.360   5
   1   4  -5 677.471 644.360   7
  -1   4   5 401.571 916.212   1
  -1   4   4 3663.19 886.493   3
   1  -4   4 1377.62 595.165   5
  -1  -4  -4 1744.06 469.605   2
   1  -4   4 1683.91 212.841   1
  -1   4   4 1917.85 877.158   1
   1   4  -4 1926.80 961.636   7
  -1   4   4 2300.83 497.839   6
  -1  -4  -4 1305.67 793.031   5
   1  -4   4 2568.08 855.987   7
  -1  -4  -3 23798.0 1178.60   4
  -1  -4  -3 24771.2 1479.06   2
  -1   4   3 27526.4 1863.16   3
   1  -4   3 25595.2 1904.32   7
   1  -4   3 28350.6 2871.52   3
  -1  -4  -3 23914.6 1377.09   6
   1   4  -3 24244.0 2011.89   7
   1  -4   3 26642.3 2503.94   6
   1  -4   3 25362.9 995.872   1
  -1   4   3 24356.9 1567.66   6
  -1  -4  -3 23308.8 2208.07   5
  -1   4   3 25435.1 2083.88   7
  -1   4   3 26720.1 2201.98   1
  -1   4   2 48848.7 1519.23   3
  -1   4   2 46210.7 2257.35   6
   1   4  -2 48227.1 2296.13   7
  -1  -4  -2 44711.2 2066.74   6
  -1  -4  -2 43468.9 2554.54   5
   1  -4   2 49928.9 3135.37   3
   1  -4   2 44784.8 1574.24   1
  -1  -4  -2 42776.8 1585.60   4
   1   4  -1 105882. 2505.96   1
  -1  -4  -1 102622. 3309.46   5
   1  -4   1 100756. 2678.31   1
  -1  -4  -1 110466. 3531.77   6
  -1   4   1 107311. 3596.07   6
   1  -4   1 108045. 3479.20   3
  -1  -4  -1 103393. 2816.09   4
  -1   4   1 105477. 3415.23   1
  -1   4   0 35821.3 1788.16   1
   1  -4   0 36802.2 2304.70   6
  -1  -4   0 33228.2 1629.92   5
   1   4   0 35094.3 1761.61   1
  -1  -4   0 37280.5 2111.69   4
  -1  -4   0 33046.5 2201.98   6
   1  -4   0 31024.3 1706.71   1
   1  -4  -1 104383. 3381.06   5
   1   4   1 99511.3 3357.21   1
   1  -4  -1 104566. 2712.42   4
  -1   4  -1 101321. 2708.46   7
   1  -4  -1 110665. 3633.66   6
  -1   4  -2 44640.4 2104.78   7
   1  -4  -2 49301.3 2712.85   5
   1  -4  -2 44308.9 2186.53   6
   1  -4  -2 46783.5 1282.56   4
   1   4   2 48480.7 2507.09   5
   1   4   3 24765.7 1732.24   3
   1   4   3 26475.0 1289.51   4
   1  -4  -3 24020.1 2243.05   5
   1   4   3 25273.5 2141.92   7
   1  -4  -3 25247.1 1629.51   2
   1   4   3 26758.0 2259.05   1
  -1  -4   3 25956.6 1755.36   5
  -1   4  -3 26763.0 2062.27   7
  -1  -4   4 1291.47 702.659   5
   1  -4  -4 2322.74 580.652   2
   1  -4  -4 1027.49 826.060   5
   1   4   4 2025.40 366.299   4
   1   4   4 1313.28 695.077   3
  -1   4  -4 1526.12 676.127   7
   1   4   4 1121.48 747.913   1
   1  -4  -5 177.437 929.297   5
  -1  -4   5 157.379 758.216   5
   1   4   5 469.219 275.486   4
   1   4   5 1123.14 915.537   1
  -1  -4   5 1289.57 734.010   2
   1   4   5 2172.17 852.078   3
  -1   4  -5 298.932 790.671   7
  -1   4  -6 3922.18 1384.86   7
   1  -4  -6 4234.76 1556.44   5
  -1  -4   6 2806.68 1004.91   2
   1   4   6 1495.04 1105.78   1
  -1  -5  -6 3689.95 1578.22   5
   1  -5   6 2107.77 1163.52   2
  -1   5   6 3580.35 1398.57   1
   1   5  -6 3561.68 1374.44   7
   1   5  -5 4126.36 1174.39   7
  -1   5   5 1524.58 1195.52   1
  -1  -5  -5 3282.22 1250.15   5
  -1   5   4 11775.7 1808.77   1
  -1   5   4 12475.7 1499.42   3
  -1  -5  -4 12997.0 1302.06   2
  -1  -5  -4 11188.8 2025.13   5
   1  -5   4 12621.6 1641.37   5
   1   5  -4 10530.4 1784.06   7
   1   5  -3 6073.23 1201.03   7
  -1  -5  -3 5589.60 871.565   6
  -1   5   3 5770.68 1361.01   1
  -1  -5  -3 5286.59 1298.95   5
   1  -5   3 3875.98 484.768   1
  -1  -5  -3 5093.38 605.591   4
   1  -5   3 5215.95 1237.27   3
  -1   5   2 29448.4 2322.48   1
   1   5  -2 27158.2 1925.59   7
  -1  -5  -2 30291.8 1547.70   4
  -1  -5  -2 28706.3 2315.90   5
   1  -5   2 26644.6 1450.76   1
   1  -5   2 28112.7 2468.05   3
  -1  -5  -2 28623.9 2021.80   6
  -1   5   1 4420.93 874.839   1
  -1  -5  -1 5577.91 812.577   4
   1  -5   1 4803.61 812.573   3
   1  -5   1 4877.08 742.128   1
  -1  -5  -1 4137.46 817.464   5
   1   5  -1 4650.90 707.830   1
   1  -5   1 4677.93 1173.20   6
  -1  -5  -1 4086.48 908.504   6
  -1   5   0 263.071 386.098   1
  -1  -5   0 181.684 365.318   5
  -1  -5   0 214.919 483.873   4
   1   5   0 501.502 464.839   1
  -1  -5   0 800.690 664.777   6
  -1  -5   0-50.7512 113.148   3
   1  -5   0 89.4044 449.474   6
   1  -5  -1 5579.43 980.020   5
   1  -5  -1 4527.74 722.029   4
   1   5   1 5117.70 982.708   1
   1  -5  -1 4070.01 924.987   6
  -1   5  -1 4499.81 723.221   7
  -1  -5   1 5457.30 1145.39   6
  -1  -5   1 2445.95 662.088   3
   1  -5  -2 26778.1 2235.71   5
  -1   5  -2 29674.2 1898.07   7
   1  -5  -2 29743.2 2147.65   6
   1   5   2 29175.9 2317.97   1
   1  -5  -2 29942.0 1335.97   4
   1  -5  -3 4731.11 854.527   6
  -1   5  -3 4230.64 984.333   7
   1  -5  -3 6203.02 965.765   2
   1   5   3 4968.63 1182.15   1
  -1  -5   3 3621.81 1389.58   3
   1  -5  -3 5937.02 1235.29   5
   1  -5  -4 14100.8 1439.52   2
   1   5   4 13146.7 2035.47   1
   1  -5  -4 10517.0 1914.78   5
  -1  -5   4 12574.5 1511.19   5
  -1   5  -4 11461.5 1628.82   7
   1  -5  -5 1812.23 879.604   5
  -1  -5   5 2667.22 1024.45   2
  -1   5  -5 2346.99 1004.91   7
   1   5   5 2098.74 1088.72   1
   1  -5  -6 2671.81 1376.61   5
  -1  -5   6 3037.80 1512.39   2
  -1   5  -6 4083.46 1511.14   7
   1   5   6 4251.61 1565.62   1
  -1  -6  -6-326.089 943.249   5
   1   6  -6-5.21545 497.698   7
   1  -6   6 1050.54 898.615   2
  -1  -6  -5 1818.35 947.962   5
   1   6  -5 844.603 892.455   7
  -1   6   5 2585.45 1170.33   1
  -1   6   4 4120.52 1308.32   1
   1   6  -4 5629.81 1320.60   7
  -1  -6  -4 4071.67 1385.70   5
  -1  -6  -3 4941.98 881.170   6
  -1  -6  -3 4576.65 631.532   4
   1   6  -3 5174.94 1193.82   7
   1  -6   3 4557.91 1315.31   3
  -1  -6  -3 4257.57 1267.82   5
  -1   6   3 3555.04 1201.73   1
   1  -6   2 12378.1 1706.78   3
  -1  -6  -2 9640.08 1621.99   5
   1   6  -2 13931.6 1529.52   7
  -1  -6  -2 13717.7 1202.48   4
  -1   6   2 9859.88 1610.62   1
  -1  -6  -2 15084.3 1756.54   6
  -1   6   1 10526.0 1477.84   1
   1  -6   1 11644.2 1236.31   3
  -1  -6  -1 11539.0 1626.40   6
   1   6  -1 11945.9 1211.42   1
  -1  -6  -1 11262.4 1413.67   5
  -1  -6  -1 13343.6 1428.54   4
  -1  -6   0 44510.8 2896.59   4
   1   6   0 43587.5 2488.43   1
  -1   6   0 43733.5 2446.83   1
  -1  -6   0 44577.4 2453.51   5
   1  -6   0 49957.3 3084.02   4
   1  -6   0 41971.5 2473.95   5
   1  -6  -1 12033.2 1295.10   4
   1   6   1 12400.8 1547.01   1
   1  -6  -1 15590.1 1900.68   6
  -1  -6   1 12183.1 1355.49   3
  -1   6  -1 12968.2 1319.90   7
   1  -6  -1 10851.0 1511.38   5
  -1  -6   2 11695.3 1782.00   3
   1  -6  -2 13870.0 1626.91   6
  -1   6  -2 12016.3 1348.04   7
   1   6   2 12221.0 1659.24   1
   1  -6  -2 13370.6 1072.36   4
   1  -6  -2 13250.3 1750.11   5
   1  -6  -3 4228.84 1282.51   5
   1  -6  -3 5023.44 1023.88   2
  -1   6  -3 5490.70 1097.19   7
   1  -6  -3 4189.26 1013.88   6
   1   6   3 7320.27 1468.03   1
   1  -6  -3 3769.26 318.566   4
  -1   6  -4 4201.85 1119.85   7
   1   6   4 4139.44 1263.49   1
   1  -6  -4 5309.95 1593.45   5
  -1   6  -5 488.539 797.157   7
   1  -6  -5 1886.18 1171.41   5
   1   6   5 2420.87 1278.94   1
   1   6   6 1029.93 1261.26   1
   1  -6  -6-605.453 704.126   5
  -1   6  -6 321.808 989.359   7
  -1  -7  -5-656.515 945.553   5
  -1   7   5-1822.36 1077.35   1
   1   7  -5 1629.94 875.929   7
   1   7  -4 1036.94 596.451   7
  -1   7   4-474.899 1068.90   1
  -1  -7  -4 2254.00 1207.73   5
   1   7  -3-8.92707 755.581   7
  -1  -7  -3 822.176 747.159   5
  -1   7   3 395.565 838.474   1
   1   7  -2 906.180 697.177   7
  -1  -7  -2 470.259 384.558   4
  -1  -7  -2 762.563 527.936   5
   1  -7   2 803.245 690.113   3
  -1   7   2 474.974 869.374   1
  -1  -7  -1 16945.2 1917.38   5
  -1  -7  -1 16377.0 1696.11   4
  -1   7   1 16418.9 1905.58   1
   1   7  -1 15884.6 1714.77   7
   1   7  -1 15875.4 1538.19   1
   1  -7   0 20687.5 1943.71   5
   1   7   0 20704.8 1952.07   1
   1  -7   0 21465.5 2282.12   4
  -1   7   0 23432.4 2005.52   1
  -1  -7   0 18084.4 2149.08   4
  -1  -7   0 21363.0 1945.77   5
   1   7   1 14973.2 1882.81   1
  -1  -7   1 16907.1 1529.23   3
  -1  -7   1 14544.4 1533.47   5
  -1   7  -1 16984.9 1578.68   7
   1  -7  -1 16188.9 1617.59   4
   1  -7  -1 14456.9 1819.36   5
   1   7   2 735.629 770.663   1
   1  -7  -2 533.626 247.861   4
  -1   7  -2-144.439 347.095   7
   1  -7  -2 882.377 715.787   5
  -1  -7   2 223.290 379.996   3
   1  -7  -3 496.970 959.216   5
  -1   7  -3 223.385 660.929   7
   1   7   3 678.273 915.993   1
   1  -7  -4-989.897 912.458   5
  -1   7  -4 311.883 765.380   7
   1   7   4 1843.52 1262.65   1
  -1   7  -5-1933.40 848.846   7
   1   7   5 264.198 1040.08   1
   1  -7  -5-1354.07 1158.59   5
  -1  -8  -4 3538.34 1549.77   5
  -1   8   4 2214.54 1355.44   1
   1   8  -4 3398.80 930.460   7
   1   8  -3 2206.66 933.965   7
  -1  -8  -3 1873.67 1024.93   5
  -1   8   3 3492.49 1390.90   1
  -1   8   2 2036.43 1062.31   1
   1   8  -2 551.571 674.729   7
  -1  -8  -2 1160.38 859.438   5
  -1   8   1 1893.80 851.257   1
  -1  -8  -1 3992.19 961.916   5
   1   8  -1 2019.62 761.454   7
   1  -8   1 2533.97 840.688   5
   1   8  -1 2045.57 817.186   1
   1  -8   0 2948.19 780.143   5
  -1   8   0 1977.14 702.966   1
   1   8   0 1585.37 688.017   1
  -1  -8   0 2304.97 859.553   5
   1  -8  -1 2664.89 845.331   5
  -1   8  -1 1775.53 621.789   7
   1   8   1 3681.19 1057.24   1
  -1  -8   1 2857.86 864.729   5
   1  -8  -2 1838.44 863.621   5
   1   8   2 1159.25 933.955   1
  -1   8  -2 319.263 574.891   7
  -1   8  -3 2476.35 875.652   7
   1  -8  -3 571.200 882.796   5
   1   8   3 1405.73 901.683   1
   1   8   4-400.616 1324.61   1
   1  -8  -4 594.977 1092.68   5
   1  -9   2 868.363 621.258   5
  -1   9   2 1168.51 898.860   1
  -1  -9  -2 1644.46 739.074   5
   1   9  -2 366.635 687.133   7
   1   9  -1 1927.17 840.181   7
   1  -9   1 671.829 691.126   5
  -1   9   1 422.263 621.105   1
  -1  -9  -1 514.964 941.590   5
  -1   9   0-93.7442 576.769   1
  -1  -9   0 1849.34 627.793   5
   1   9   0 697.192 493.671   1
   1  -9  -1 118.898 976.410   5
   1   9   1 307.343 912.063   1
  -1  -9   1 1975.12 610.468   5
   1   9   2 1440.63 1175.81   1
   1  -9  -2-130.890 1048.91   5
   2   0  -1 53675.1 1127.24   1
  -2   0  -1 55250.2 1095.40   6
   2   0  -1 56373.9 1602.68   7
  -2   0   1 51500.7 1469.66   2
  -2   0  -1 57391.2 1628.48   5
   2   0   1 57111.0 1903.68   3
   2   0   1 55342.1 1104.14   6
  -2   0  -1 52339.4 1528.07   4
   2   0  -1 51966.5 1300.53   5
   2   0  -2 235.543 280.636   5
   2   0   2 117.287 286.904   4
  -2   0   2 95.2021 146.909   1
   2   0  -2-50.9053 226.600   2
  -2   0   2 350.895 283.981   5
   2   0  -2 53.6860 302.904   7
  -2   0  -2 391.921 390.860   5
  -2   0  -2-118.583 413.528   7
   2   0   2 72.3251 149.234   6
   2   0   2 73.5140 327.761   3
  -2   0   2-50.1875 297.173   2
   2   0  -3 6575.45 841.891   2
  -2   0   3 6703.87 829.263   2
  -2   0   3 5812.41 670.848   1
   2   0   3 5881.35 884.651   4
   2   0   3 8501.93 1312.83   3
  -2   0  -3 6128.07 979.860   5
  -2   0  -3 5657.77 1012.80   7
  -2   0   3 6211.34 934.024   5
   2   0  -3 7177.10 1000.66   5
   2   0   3 5984.64 625.555   6
   2   0  -3 7221.77 1104.64   7
   2   0   3 5973.43 622.640   2
  -2   0   4 62375.4 2458.15   1
  -2   0   4 59299.2 3022.38   5
  -2   0  -4 60492.9 3356.50   7
  -2   0  -4 58427.9 3176.38   5
   2   0  -4 59654.9 3404.91   7
   2   0   4 52601.6 3024.47   7
   2   0   4 58170.6 2115.04   6
   2   0   4 55072.4 2016.38   2
   2   0   4 57799.1 4019.19   3
  -2   0   4 56569.1 2540.03   2
   2   0   4 50572.4 2755.38   4
   2   0   4 55666.5 3137.34   5
   2   0  -4 57977.7 3107.02   5
   2   0   5 1005.62 512.666   6
  -2   0   5 848.377 638.025   1
   2   0   5 252.271 833.413   4
   2   0  -5 1217.34 862.578   5
  -2   0  -5-284.409 840.632   5
   2   0   5 755.291 434.344   2
   2   0  -5 967.623 882.585   7
  -2   0   5 776.705 528.985   2
   2   0   6 5235.47 1060.15   1
   2   0  -6 5629.44 1410.93   5
  -2   0  -6 5884.20 1560.67   5
   2   0   6 4066.37 1253.45   4
   2   0   6 4062.46 700.225   2
   2   0  -6 4479.98 1283.95   7
  -2   0   6 4352.89 1132.70   4
  -2   0   6 5209.32 986.793   2
  -2   0   6 4289.20 965.015   1
   2   0   7 6835.00 1568.94   4
   2   0  -7 5665.80 1668.32   5
   2   0   7 6726.22 1301.65   1
  -2   0   7 6107.38 1327.97   4
  -2   0  -7 8030.05 1761.50   5
   2   0  -7 7498.61 2038.42   7
  -2   0   7 7356.83 1324.32   1
  -2   1   7 89.8885 764.896   4
   2   1  -7-1954.34 1253.73   7
  -2   1   7-393.896 932.002   1
  -2  -1  -7 1455.36 968.787   5
   2  -1   7 1315.94 779.008   4
  -2   1   6 1163.09 783.499   1
   2  -1   6 768.865 618.788   2
  -2   1   6 760.712 543.452   2
   2   1  -6 210.462 645.090   7
   2  -1   6 588.376 574.256   1
   2  -1   6 406.739 834.073   4
  -2   1   6 1328.11 799.666   4
   2   1  -6 963.547 939.668   5
  -2  -1  -6 727.600 1020.81   5
   2  -1   5 21970.7 1752.25   2
   2  -1   5 25930.7 2465.81   4
  -2  -1  -5 21959.2 2448.81   5
   2  -1   5 24928.0 1903.58   6
  -2   1   5 23337.2 1740.22   2
  -2   1   5 21779.8 1795.75   4
   2   1  -5 23732.9 2553.20   7
   2   1  -5 25164.8 2298.68   5
  -2   1   5 23810.7 2075.51   1
  -2   1   4 18242.6 1581.22   1
   2  -1   4 18069.3 1438.14   2
  -2  -1  -4 15643.2 1814.58   5
   2   1  -4 17707.9 1683.03   5
  -2   1   4 17828.0 1877.00   7
   2  -1   4 14980.6 2181.90   3
  -2   1   4 17259.5 1371.02   2
   2  -1   4 18852.0 1538.24   6
   2  -1   4 18273.7 1815.50   5
   2   1  -4 18952.6 1981.18   7
  -2   1   4 15777.2 1313.99   4
   2  -1   4 15473.5 1749.53   4
  -2   1   4 15011.2 1616.49   5
   2  -1   4 16433.3 1743.76   7
  -2  -1  -3 16319.6 1638.72   5
  -2   1   3 19915.6 1278.42   2
   2  -1   3 18373.4 2034.89   3
  -2   1   3 20696.0 1435.55   1
  -2   1   3 21689.5 1661.28   5
   2  -1   3 20648.8 1651.54   7
   2   1  -3 21073.0 1770.44   7
   2  -1   3 18033.3 1359.00   6
   2   1  -3 17756.5 1388.45   5
   2  -1   3 22730.8 1731.57   5
   2  -1   2 2939.68 764.351   3
  -2  -1  -2 3608.01 714.482   5
   2  -1   2 4168.76 643.436   7
  -2  -1  -2 3531.80 520.886   4
   2   1  -2 3321.47 642.764   7
  -2   1   2 3023.73 526.736   1
   2  -1   2 3794.82 634.189   5
   2   1  -2 3463.27 537.281   5
  -2   1   2 3764.78 540.007   2
   2  -1   2 3565.13 590.189   6
  -2   1   1 163262. 2626.63   6
   2  -1   1 153070. 3387.19   3
   2  -1   1 167536. 2407.94   7
  -2   1   1 168806. 2527.12   2
  -2  -1  -1 176220. 3102.59   5
  -2  -1  -1 160937. 3056.09   3
  -2  -1  -1 159550. 2404.98   4
   2   1  -1 158771. 2729.43   7
   2  -1   0-0.43418 1009.35   1
  -2   1   0 959.149 1276.06   6
   2  -1  -1 169265. 2833.09   7
   2  -1  -1 157535. 2641.58   1
  -2  -1   1 170710. 1850.61   5
   2   1   1 176953. 3011.27   3
   2   1   1 165641. 2384.42   4
   2  -1  -1 171388. 2842.55   5
  -2   1  -1 163840. 2949.70   6
  -2  -1   1 153413. 2977.92   2
  -2   1  -1 167795. 2457.23   7
   2  -1  -2 3401.41 654.226   5
  -2  -1   2 2872.00 268.527   1
  -2  -1   2 3766.20 526.668   5
   2  -1  -2 2781.06 643.066   7
   2   1   2 3336.60 721.860   3
  -2   1  -2 4141.26 645.764   7
   2  -1  -2 3935.99 551.196   2
   2   1   2 2441.50 451.557   4
  -2  -1   2 3211.62 613.778   2
   2   1   3 21971.8 1425.04   4
  -2   1  -3 19877.2 1661.84   7
   2  -1  -3 21486.0 1719.31   5
  -2  -1   3 19664.5 1510.50   2
  -2  -1   3 18409.1 1424.81   5
   2  -1  -3 18404.8 1721.17   7
  -2  -1   3 20218.3 947.187   1
   2   1   3 20974.3 2020.04   3
   2   1   3 20345.7 742.885   2
   2  -1  -3 21866.0 1357.15   2
   2   1   4 17810.9 1867.52   7
  -2  -1   4 16402.7 1585.47   2
   2   1   4 17279.2 737.737   6
   2   1   4 20334.1 2310.84   3
   2  -1  -4 19203.2 1906.92   5
   2   1   4 19323.6 1939.51   5
  -2  -1   4 19478.2 1751.67   5
   2   1   4 17188.8 1507.78   4
   2   1   4 18772.7 927.590   2
   2  -1  -4 18576.0 1979.35   7
  -2  -1   4 17814.5 1103.84   1
  -2   1  -4 15973.8 1753.11   7
  -2  -1   4 19596.3 1848.48   7
   2  -1  -4 16658.1 1384.02   2
  -2  -1   5 23762.7 1540.04   1
   2  -1  -5 24294.5 2558.60   7
  -2  -1   5 24634.3 2287.33   5
   2   1   5 24268.3 1198.26   2
  -2  -1   5 23181.8 2054.29   2
   2  -1  -5 25918.7 2481.58   5
  -2   1  -5 25223.0 2535.82   7
   2   1   5 25149.2 2100.39   4
   2   1   5 24249.2 942.322   6
   2  -1  -6 1290.66 1136.24   5
  -2   1  -6 60.2968 828.717   7
   2   1   6 983.342 782.971   4
  -2  -1   6 889.877 673.789   2
  -2  -1   6 751.440 487.483   1
   2   1   6 1676.22 399.460   2
   2  -1  -6 22.8911 1040.17   7
   2   1   6 855.568 693.902   1
   2  -1  -7 2498.49 957.094   5
   2   1   7 1107.27 902.875   1
  -2  -1   7-967.501 502.374   2
   2   1   7-724.334 776.161   4
  -2  -1   7 894.130 762.653   4
   2   2  -7 2425.90 1261.78   7
  -2   2   7 1815.98 1221.19   1
   2  -2   7 3055.52 1261.90   4
  -2  -2  -7 3166.60 1372.25   5
   2  -2   6 6873.03 1552.99   4
  -2  -2  -6 6017.86 1630.59   5
  -2   2   6 5761.26 1300.75   1
   2  -2   6 5559.42 900.812   1
   2   2  -6 4637.73 1399.73   7
  -2   2   6 5635.27 956.967   4
   2  -2   6 5846.50 1111.45   2
  -2   2   5 7290.59 1322.06   1
   2  -2   5 4019.39 1081.30   6
  -2   2   5 6419.98 769.056   6
  -2   2   5 7413.48 961.721   4
   2  -2   5 5378.52 1469.22   4
   2   2  -5 8783.67 1618.91   7
  -2  -2  -5 8244.60 1639.80   5
   2  -2   5 7429.09 1235.09   2
  -2   2   5 6932.58 934.519   2
  -2   2   4 5431.22 689.658   4
   2  -2   4 6306.45 1147.22   7
  -2  -2  -4 5180.90 1168.88   5
  -2   2   4 5758.51 819.933   2
  -2   2   4 6340.31 757.370   6
  -2   2   4 5574.85 1064.53   1
   2   2  -4 6928.14 1276.82   7
  -2   2   4 6834.55 1205.27   5
   2  -2   4 6097.61 1151.34   6
   2  -2   4 6073.28 1100.67   5
  -2   2   4 6510.51 1158.58   7
   2  -2   3 6820.51 1047.22   5
  -2   2   3 5384.44 975.481   1
   2  -2   3 5494.69 896.941   7
   2  -2   3 8448.04 1447.56   3
  -2   2   3 6167.84 718.938   6
  -2  -2  -3 5654.31 742.444   4
  -2  -2  -3 5304.42 1064.68   5
   2   2  -3 6511.08 1129.62   7
  -2   2   3 6407.53 1037.92   7
   2  -2   3 6070.49 1013.40   6
  -2   2   3 6747.56 536.358   4
  -2  -2  -3 6107.62 479.513   2
   2   2  -2 27659.4 1653.92   7
  -2  -2  -2 25341.0 1186.50   4
  -2  -2  -2 27423.1 888.251   2
  -2  -2  -2 25616.5 731.333   6
   2  -2   2 27393.3 1747.26   6
  -2   2   2 26914.3 1659.51   7
   2  -2   2 24010.3 1358.07   7
  -2   2   2 27600.6 1331.34   6
  -2  -2  -2 25791.1 1725.80   5
   2  -2   2 26199.0 2072.31   3
  -2  -2  -1 247206. 3478.41   3
  -2  -2  -1 229076. 3957.67   5
  -2   2   1 249933. 3652.14   7
  -2  -2  -1 244227. 3302.37   6
  -2  -2  -1 250821. 3303.58   4
   2   2  -1 244245. 2124.20   1
   2  -2   1 264157. 4763.84   3
   2   2  -1 223601. 3703.74   7
   2  -2   1 248963. 2946.35   7
  -2   2   1 257012. 3995.30   6
  -2  -2   0 17514.6 782.402   5
  -2  -2   0 17327.5 1049.54   4
   2  -2   0 17684.6 936.788   1
  -2   2   0 16336.3 793.245   3
  -2   2   0 16741.0 1143.26   6
   2  -2  -1 250536. 4060.20   5
   2  -2  -1 254629. 4073.51   1
  -2   2  -1 245285. 3038.11   7
   2   2   1 247100. 3351.94   4
  -2   2  -1 257534. 4686.28   6
   2  -2  -1 251721. 3911.66   6
  -2   2  -2 24837.6 1436.53   7
  -2  -2   2 23621.7 1508.57   7
   2   2   2 25611.0 1144.82   4
   2  -2  -2 25157.4 1323.65   2
   2  -2  -2 22386.6 1595.83   5
   2   2   2 26177.6 1640.50   3
  -2  -2   2 24477.9 1179.19   5
   2  -2  -3 6325.23 1112.06   5
  -2  -2   3 6620.27 871.087   5
   2   2   3 5167.39 673.364   4
   2  -2  -3 6247.39 809.420   2
   2   2   3 5847.40 1056.08   3
  -2   2  -3 6543.39 1048.56   7
  -2  -2   3 5764.03 1012.09   2
  -2  -2   3 6752.59 991.165   7
   2   2   4 6960.15 909.925   4
  -2  -2   4 4301.89 901.241   5
   2  -2  -4 6447.73 901.745   2
   2   2   4 7246.34 1421.31   3
  -2  -2   4 4880.94 1009.85   2
   2  -2  -4 7070.85 1240.32   5
  -2  -2   4 6690.83 1146.40   7
  -2   2  -4 4334.27 1137.69   7
  -2  -2   4 5539.88 454.169   1
  -2  -2   5 7751.59 1299.56   5
   2   2   5 6288.79 1127.49   4
   2  -2  -5 6552.79 941.237   2
  -2   2  -5 6526.37 1407.45   7
  -2  -2   5 6309.33 626.346   1
  -2  -2   5 7368.58 1321.72   2
   2   2   5 8500.65 1443.06   1
   2  -2  -5 7535.75 1506.99   5
  -2  -2   6 5338.94 1219.70   2
  -2   2  -6 6037.08 1511.64   7
   2  -2  -6 4842.33 1376.25   5
   2   2   6 5846.22 1151.72   4
   2   2   6 5679.18 1315.51   1
  -2  -2   6 5633.54 661.278   1
  -2  -2   7 3900.44 1469.41   4
  -2  -2   7 1200.91 875.314   2
   2  -2  -7 554.519 1213.33   5
   2   2   7 2826.60 1188.75   1
  -2   2  -7 2633.04 1157.67   7
   2  -3   7 2180.39 1595.43   4
  -2  -3  -7 600.529 1334.56   5
   2   3  -7 1687.96 1238.47   7
   2  -3   7 259.001 953.794   2
  -2   3   7 1076.81 978.067   1
  -2  -3  -6-2113.25 1332.72   5
  -2   3   6 980.509 878.695   1
   2  -3   6 1974.04 1170.55   4
   2   3  -6 541.172 1089.97   7
   2  -3   6 591.378 595.901   2
  -2  -3  -5 1554.02 1069.66   5
  -2   3   5 1743.59 354.680   4
  -2   3   5 3262.40 1015.43   1
  -2   3   5 2247.83 470.056   6
   2   3  -5 1772.90 961.120   7
   2   3  -4 4022.43 1088.03   7
   2  -3   4 4565.57 1024.34   7
  -2  -3  -4 5131.90 1213.59   5
  -2   3   4 4933.19 1265.85   3
   2  -3   4 4648.48 1046.69   5
   2  -3   4 5467.42 1304.07   6
  -2  -3  -4 5049.03 523.183   2
  -2   3   4 4352.95 369.753   4
  -2   3   4 4325.30 637.014   6
  -2   3   4 4540.57 1102.13   1
   2  -3   3 35802.5 2252.51   5
   2   3  -3 35764.9 2336.18   7
  -2  -3  -3 33600.2 1580.85   4
   2  -3   3 33359.8 1993.37   7
  -2   3   3 33177.2 1652.38   6
  -2   3   3 32022.3 2252.28   7
   2  -3   3 37522.3 3109.28   3
  -2  -3  -3 36432.1 1382.33   2
   2  -3   3 38242.4 2602.14   6
  -2   3   3 34184.4 2319.17   1
  -2  -3  -3 36948.6 2551.97   5
   2  -3   2 29570.8 2305.66   3
  -2  -3  -2 30446.2 1356.43   4
  -2  -3  -2 28622.1 1993.62   5
  -2   3   2 28346.0 1578.43   6
   2  -3   2 27863.4 1494.38   7
   2  -3   2 27614.6 1126.42   1
  -2   3   2 31686.2 1878.37   7
   2   3  -2 29253.2 1805.87   7
   2  -3   2 32284.0 2226.68   6
  -2  -3  -2 30847.3 1328.16   6
   2   3  -1 38462.7 1227.85   1
  -2   3   1 38119.8 1904.48   6
  -2  -3  -1 41151.2 1808.66   6
  -2  -3  -1 38742.3 1567.00   4
   2  -3   1 39548.3 1489.63   1
   2  -3   1 38549.9 1976.15   3
  -2  -3  -1 38598.3 1855.82   5
  -2  -3  -1 39335.2 1313.26   3
   2  -3   0 12164.5 969.484   1
  -2  -3   0 14588.4 1181.23   4
  -2   3   0 14493.8 1023.90   1
  -2  -3   0 14886.9 928.260   5
   2   3   0 13486.2 964.368   1
  -2   3   0 11293.0 1191.00   6
   2  -3  -1 39102.5 1885.55   5
   2   3   1 41651.1 1793.86   5
   2   3   1 38969.5 1764.50   4
   2  -3  -1 41560.5 1968.34   1
  -2   3  -1 36617.9 1331.89   7
   2  -3  -1 44816.2 2033.71   6
   2  -3  -2 30241.0 1633.60   6
   2  -3  -2 28903.9 1949.76   5
   2  -3  -2 30735.4 1609.83   2
   2   3   2 28477.9 1335.18   4
  -2   3  -2 30426.8 1647.44   7
   2   3   2 29887.8 1914.26   5
  -2  -3   3 36076.1 2184.09   7
   2  -3  -3 35583.0 1872.43   2
   2   3   3 33557.2 1499.37   4
   2   3   3 31773.1 2223.80   7
  -2  -3   3 32837.2 1774.19   5
   2  -3  -3 35021.1 2435.96   5
   2   3   3 34884.5 2297.91   3
  -2   3  -3 35401.9 2199.99   7
   2  -3  -4 4700.72 794.574   2
   2  -3  -4 6089.08 1208.98   5
   2   3   4 4481.98 1130.01   3
  -2   3  -4 4971.15 1131.26   7
  -2  -3   4 4529.76 861.839   5
  -2  -3   4 5320.13 1176.99   2
   2   3   4 4931.86 711.698   4
   2   3   4 5125.95 1126.96   1
  -2  -3   5 2701.27 917.785   2
  -2  -3   5 2080.84 766.480   5
   2   3   5 1971.71 647.443   4
   2  -3  -5 1533.38 956.925   5
  -2   3  -5 1714.16 924.586   7
   2   3   5 2689.97 917.331   1
   2  -3  -5 2291.06 629.676   2
   2  -3  -6 2223.34 1199.26   5
  -2  -3   6 3154.85 1118.04   2
   2   3   6 840.571 802.905   1
  -2   3  -6 3542.34 996.382   7
   2   3   6 1177.21 661.714   4
  -2   3  -7 26.8464 1258.81   7
   2  -3  -7 518.841 1166.53   5
   2   3   7 206.670 1077.55   1
  -2  -3   7 2346.62 880.666   2
   2  -4   6-582.790 740.375   2
  -2   4   6 1180.89 962.438   1
  -2  -4  -6-5.21717 928.249   5
   2   4  -6 436.914 1028.29   7
  -2  -4  -5 3197.90 1198.55   5
   2   4  -5 3119.42 1163.67   7
  -2   4   5 1968.65 1007.84   1
   2  -4   5 2388.95 300.016   1
  -2   4   5 2141.88 441.649   6
   2  -4   4 3659.79 869.089   5
  -2   4   4 4614.53 1044.66   3
  -2  -4  -4 4242.68 620.101   2
  -2   4   4 4555.95 1119.86   1
   2   4  -4 2599.06 1025.04   7
   2  -4   4 4466.01 1013.18   7
  -2  -4  -4 4119.07 1319.05   5
   2  -4   4 3868.77 437.523   1
  -2   4   4 3538.28 617.722   6
  -2  -4  -3 8751.68 1416.51   5
  -2   4   3 7429.92 956.752   6
   2  -4   3 8674.47 686.770   1
   2  -4   3 8678.40 1659.32   3
  -2  -4  -3 8597.67 814.746   4
  -2  -4  -3 8899.26 806.305   6
  -2   4   3 9780.56 1392.06   1
  -2  -4  -3 9128.87 869.445   2
  -2   4   3 8062.41 1071.77   3
   2  -4   3 7993.16 1561.45   6
  -2   4   3 9402.71 1307.43   7
   2  -4   3 9611.79 1119.29   7
   2   4  -3 9451.24 1363.50   7
  -2   4   2 277.669 321.763   6
  -2   4   2 170.997 395.274   7
  -2  -4  -2 589.751 386.759   6
  -2  -4  -2-184.882 571.262   5
   2   4  -2 298.017 475.969   7
   2  -4   2 482.463 554.790   3
  -2   4   2-33.7820 215.886   3
  -2  -4  -2 504.163 311.986   4
   2  -4   2 267.923 271.599   1
   2  -4   1 11064.3 1149.25   3
   2  -4   1 11222.8 998.891   1
   2   4  -1 13144.9 926.390   1
  -2   4   1 12055.8 1288.37   1
  -2  -4  -1 13301.9 1099.44   4
  -2  -4  -1 11657.2 623.540   3
  -2   4   1 12602.1 1331.73   6
  -2  -4  -1 13111.8 1282.19   6
  -2  -4  -1 11810.3 1205.75   5
   2  -4   0 626.549 399.669   1
   2  -4   0 249.319 467.371   6
  -2   4   0 367.046 504.776   6
  -2  -4   0 226.215 372.619   5
  -2   4   0 131.220 346.144   1
  -2  -4   0-5.28769 399.379   4
   2   4   0 304.121 350.121   1
  -2  -4   0 18.6007 479.438   6
   2  -4  -1 12729.4 1007.05   4
   2  -4  -1 12233.7 1319.79   6
   2   4   1 11033.5 1243.50   1
  -2   4  -1 13341.1 959.687   7
   2  -4  -1 12670.8 1248.79   1
   2  -4  -1 12924.2 1315.29   5
   2   4   2 59.5170 432.568   5
   2  -4  -2-48.1978 530.284   5
   2   4   2 324.553 351.714   4
   2  -4  -2 277.570 349.446   6
  -2   4  -2 47.8156 367.223   7
   2  -4  -2 239.201 126.309   4
   2  -4  -3 6864.13 1338.06   5
   2  -4  -3 8632.79 1042.13   2
   2   4   3 8453.43 1329.07   1
  -2  -4   3 8510.05 1004.31   5
  -2   4  -3 8302.49 1183.18   7
   2   4   3 8647.46 837.831   4
   2  -4  -4 2830.73 692.620   2
   2   4   4 3809.92 1087.97   1
  -2  -4   4 4288.33 907.244   5
  -2   4  -4 3074.63 902.220   7
   2   4   4 4034.70 948.739   3
   2   4   4 3144.64 533.971   4
   2  -4  -4 3497.14 1074.84   5
  -2  -4   5 1095.40 857.531   2
   2   4   5 1244.32 694.645   3
  -2   4  -5 4586.59 1190.93   7
  -2  -4   5 2623.77 1003.41   5
   2  -4  -5 631.903 577.219   2
   2   4   5 3282.58 591.836   4
   2  -4  -5 3309.47 1180.32   5
   2   4   5 2721.33 1227.57   1
   2  -4  -6 2044.22 892.069   5
  -2   4  -6 54.1348 977.493   7
  -2  -4   6 17.5583 668.080   2
   2  -5   6 1839.98 787.217   2
  -2  -5  -6 101.595 841.918   5
  -2   5   6-525.346 1126.54   1
   2   5  -6-1003.93 1186.37   7
  -2   5   5-454.745 827.846   1
   2   5  -5-1268.07 838.847   7
   2  -5   4 9463.94 1496.62   5
  -2  -5  -4 11767.8 1159.15   2
   2  -5   4 9309.14 647.799   1
  -2  -5  -4 8857.10 1722.26   5
   2   5  -4 9134.36 1557.06   7
  -2   5   4 9644.68 1292.99   3
  -2   5   4 8842.12 1615.95   1
  -2   5   3 3627.79 822.817   6
  -2   5   3 3595.10 616.799   3
  -2   5   3 2846.45 1060.03   1
  -2  -5  -3 3022.07 622.837   6
   2   5  -3 3132.46 928.529   7
  -2  -5  -3 2424.54 964.068   5
   2  -5   3 3149.71 1053.25   3
   2  -5   3 2573.24 444.712   1
  -2  -5  -3 3424.97 608.846   4
  -2   5   3 2129.56 888.092   7
  -2  -5  -2 21654.1 1730.16   6
  -2   5   2 21160.4 2013.95   1
  -2  -5  -2 18410.1 1887.13   5
   2   5  -2 20205.0 1733.14   7
  -2   5   2 20767.6 1842.89   6
  -2  -5  -2 22459.2 1451.56   4
   2  -5   2 20946.0 1341.64   1
   2  -5   2 18581.8 2031.66   3
   2  -5   1 7196.75 928.054   3
   2  -5   1 8954.47 1465.19   6
  -2  -5  -1 6988.41 933.519   4
  -2  -5  -1 6687.67 1121.86   6
  -2  -5  -1 7127.74 1092.39   5
  -2   5   1 7514.88 1155.97   1
   2   5  -1 6772.99 826.840   1
   2  -5   1 5885.60 863.948   1
   2  -5   0 4254.87 931.395   6
  -2  -5   0 4602.29 725.381   5
  -2  -5   0 5335.63 964.810   4
   2  -5   0 4830.68 791.683   1
  -2   5   0 4777.49 814.155   1
   2   5   0 3735.79 725.469   1
  -2  -5   0 4538.70 1022.25   6
  -2  -5   1 7646.53 1345.14   6
   2  -5  -1 6637.41 1043.67   5
   2  -5  -1 6574.63 873.164   4
   2   5   1 7838.65 1138.85   1
   2  -5  -1 7275.44 1206.83   6
  -2   5  -1 7095.48 828.572   7
   2  -5  -2 22812.2 2084.58   5
   2  -5  -2 21148.0 1023.87   4
   2  -5  -2 21399.0 1851.00   6
  -2   5  -2 21926.0 1593.36   7
   2   5   2 21922.0 2019.05   1
  -2   5  -3 3212.53 900.997   7
   2  -5  -3 3831.56 1147.96   5
  -2  -5   3 2755.94 716.192   5
   2  -5  -3 2690.15 687.878   6
   2   5   3 3055.87 1110.39   1
   2  -5  -3 3056.54 786.319   2
   2  -5  -4 8897.45 1246.97   2
  -2   5  -4 8231.16 1458.63   7
   2   5   4 10710.3 985.548   4
   2   5   4 10199.2 1796.03   1
  -2  -5   4 10616.1 1302.94   5
   2  -5  -4 9108.68 1819.05   5
  -2  -5   5 79.2718 576.731   2
  -2   5  -5-480.675 602.040   7
   2   5   5 348.969 1142.27   1
   2  -5  -6 775.991 709.942   5
  -2  -5   6 463.059 1101.03   2
  -2   5  -6 738.590 886.722   7
   2   5   6 1658.74 1110.35   1
   2   6  -6 1792.36 1298.64   7
  -2   6   6 1043.21 1208.68   1
  -2  -6  -6-104.586 1214.21   5
   2   6  -5-78.0180 906.704   7
  -2  -6  -5-1530.20 1242.20   5
  -2   6   5 981.206 1179.73   1
  -2  -6  -4 1318.24 919.178   5
  -2   6   4 3067.73 1228.26   1
   2   6  -4 1885.84 924.819   7
  -2   6   3 536.945 892.952   1
   2   6  -3 933.937 641.124   7
   2  -6   3 501.623 328.084   1
  -2  -6  -3 911.761 569.199   6
  -2  -6  -3 688.187 398.552   4
  -2  -6  -3 1529.86 993.299   5
  -2  -6  -2 2017.55 876.742   5
  -2  -6  -2 1393.45 555.910   4
   2  -6   2 1031.68 523.209   3
   2   6  -2 956.100 627.807   7
   2  -6   2 1326.72 500.966   1
  -2  -6  -2 2217.30 651.489   6
  -2   6   2 2639.59 1033.81   1
  -2  -6  -1 26041.7 2381.51   6
   2   6  -1 22837.3 1608.64   1
  -2   6   1 24238.2 2098.64   1
  -2  -6  -1 25185.2 1876.07   4
   2  -6   1 25823.8 1746.73   3
   2  -6   1 23010.6 1784.45   1
  -2  -6  -1 26509.3 2177.36   5
  -2  -6   0 482.989 526.878   5
   2   6   0 384.560 553.249   1
  -2   6   0 101.215 516.706   1
  -2  -6   0 98.2620 148.776   3
  -2  -6   0 699.553 603.855   4
   2  -6  -1 27787.7 2491.61   6
   2  -6  -1 22236.0 1737.31   4
  -2   6  -1 27499.2 1720.26   7
   2   6   1 27814.8 2247.35   1
  -2  -6   1 24534.3 1671.66   5
   2  -6  -1 25636.1 2165.91   5
  -2  -6   1 25259.2 2054.17   3
  -2  -6   2 1206.42 510.138   3
   2   6   2 2192.38 900.739   1
   2  -6  -2 1256.76 716.633   5
   2  -6  -2 1127.79 616.819   6
  -2   6  -2 1007.83 523.464   7
   2  -6  -2 1824.29 426.463   4
   2   6   3 520.455 672.477   1
   2  -6  -3 686.608 594.231   2
  -2   6  -3 410.423 543.651   7
   2  -6  -3-50.8957 706.235   6
   2  -6  -3 1213.30 922.235   5
   2   6   4 1172.06 1220.33   1
  -2   6  -4 1553.57 859.795   7
   2  -6  -4 2110.64 1131.00   5
   2   6   5-71.0473 820.309   1
  -2   6  -5 601.455 838.211   7
  -2  -6   5-1572.98 1057.03   2
   2   6   6 2812.44 1384.93   1
  -2  -6   6 1162.71 1236.62   2
  -2   6  -6 1444.34 1338.42   7
   2  -6  -6 3571.26 1274.58   5
   2   7  -5 1885.32 939.131   7
  -2   7   5 2828.34 1132.78   1
  -2  -7  -4 1600.33 657.815   5
   2   7  -4 942.274 825.529   7
  -2   7   4 1414.21 1220.23   1
   2   7  -3 6828.62 1289.92   7
  -2  -7  -3 3368.89 1072.81   5
  -2   7   3 5158.34 1450.93   1
  -2  -7  -2 9106.79 1165.98   4
   2  -7   2 8652.84 1390.76   3
  -2   7   2 6632.98 1437.75   1
   2   7  -2 7633.44 1283.62   7
  -2  -7  -2 8448.01 1511.49   5
  -2   7   1 12244.3 1705.19   1
   2   7  -1 12112.1 1344.35   1
  -2  -7  -1 10034.0 1489.91   5
  -2  -7  -1 8880.39 1400.95   4
   2  -7   0 2935.59 855.845   4
  -2   7   0 2749.11 864.947   1
   2  -7   0 3433.81 1016.03   5
   2   7   0 2507.98 952.632   1
  -2  -7   0 2373.02 782.863   5
   2  -7  -1 9835.16 1584.68   5
  -2  -7   1 9993.65 1251.58   5
   2   7   1 11356.3 1632.27   1
  -2   7  -1 12875.8 1363.39   7
   2  -7  -1 10934.3 1354.54   4
  -2  -7   1 10502.6 1284.61   3
   2  -7  -2 8813.15 1794.42   5
  -2  -7   2 6763.86 1420.66   3
  -2   7  -2 7705.22 1122.02   7
   2   7   2 8038.17 1599.91   1
   2   7   3 4431.05 1386.45   1
  -2   7  -3 4172.33 991.752   7
   2  -7  -3 4566.80 1362.26   5
  -2   7  -4 232.957 774.242   7
   2  -7  -4 1728.84 1120.91   5
   2   7   4 379.233 1033.98   1
  -2   7  -5 1555.07 924.739   7
   2   7   5 2759.58 1117.25   1
   2  -7  -5 506.530 1212.75   5
  -2   8   4 428.646 1098.09   1
   2   8  -4 539.771 714.760   7
   2   8  -3-157.437 644.730   7
  -2  -8  -3 1222.36 756.243   5
  -2   8   3 688.739 941.070   1
   2   8  -2 315.059 606.797   7
  -2   8   2 307.516 889.542   1
  -2  -8  -2 297.463 669.439   5
  -2  -8  -1 608.471 862.043   5
  -2   8   1 1629.87 1027.37   1
   2   8  -1 2416.96 920.107   7
   2   8  -1 1230.49 628.004   1
  -2   8   0 4719.99 1079.66   1
   2  -8   0 5207.27 1198.24   5
  -2  -8   0 5419.06 1123.61   5
   2   8   0 6478.27 1204.24   1
  -2  -8   1 1142.88 601.964   5
   2   8   1 1169.87 905.879   1
  -2   8  -1 2267.78 690.358   7
   2  -8  -1 1040.03 654.199   5
  -2   8  -2 386.975 531.386   7
   2  -8  -2 763.200 700.513   5
  -2  -8   2 734.849 468.781   5
   2   8   2-255.412 613.331   1
   2  -8  -3-739.741 946.376   5
   2   8   3 1250.82 767.087   1
  -2   8  -3 798.964 382.574   7
   2  -8  -4-2379.82 1426.99   5
   2   8   4 695.909 1192.04   1
  -2   9   2-1173.56 1094.49   1
   2   9  -2 510.316 567.893   7
  -2   9   1 11.0068 840.078   1
   2  -9   1-1299.39 854.477   5
   2   9  -1 1488.57 887.834   7
  -2  -9  -1 1303.86 647.138   5
   2  -9   0 235.528 447.552   5
   2   9   0 506.028 622.142   1
  -2  -9   1 1592.42 653.186   5
   2   9   1 818.592 734.873   1
   2  -9  -1 250.877 667.635   5
   2  -9  -2 353.032 696.256   5
   2   9   2 208.457 911.164   1
   3   0  -1 93365.7 1624.03   1
   3   0   1 94916.9 1709.93   6
  -3   0  -1 96854.1 2222.67   4
   3   0   1 102631. 2630.78   3
  -3   0  -1 98246.8 1716.78   6
  -3   0   1 96488.3 1926.29   4
  -3   0   1 99020.7 2227.02   2
   3   0  -1 98357.9 1751.62   5
   3   0  -1 92724.4 2106.19   7
  -3   0   2 73807.6 2332.83   2
   3   0   2 78313.6 3121.81   3
   3   0  -2 73209.4 2360.43   2
   3   0  -2 72008.2 1813.56   1
   3   0  -2 77190.4 2657.32   7
  -3   0   2 75660.7 1816.41   1
   3   0   2 69094.6 2378.50   4
   3   0   2 74422.5 1693.63   6
   3   0  -2 72027.3 2236.09   5
  -3   0  -2 74226.4 2585.88   5
  -3   0   2 69896.6 2125.67   5
  -3   0  -3 2595.53 778.639   5
   3   0  -3 3620.77 643.617   2
   3   0  -3 2180.75 608.290   5
   3   0   3 2026.08 596.979   4
  -3   0   3 1841.56 436.868   1
  -3   0   3 2623.72 645.809   5
   3   0   3 2879.84 856.447   3
   3   0   3 2977.98 651.237   7
   3   0  -3 2698.75 821.088   7
   3   0   3 2790.48 445.052   6
  -3   0   3 2252.84 618.520   2
   3   0   3 3476.91 455.047   2
  -3   0   4 34243.1 2077.81   2
   3   0   4 31225.1 2436.96   5
   3   0   4 32579.0 2426.32   7
  -3   0   4 32960.6 2260.13   5
   3   0   4 27338.4 2130.53   4
   3   0  -4 34289.4 2384.79   5
  -3   0  -4 32975.0 2483.33   5
   3   0   4 33848.4 1556.59   6
  -3   0   4 31404.7 1734.25   1
   3   0  -4 32384.9 2627.24   7
   3   0   4 40028.3 3301.14   3
   3   0   4 32488.2 1498.51   2
   3   0   5 21270.8 1367.97   6
  -3   0   5 24244.3 1774.43   1
   3   0  -5 20735.9 2409.36   7
  -3   0   5 19740.8 1829.70   2
   3   0   5 19843.0 1321.68   2
   3   0  -5 20218.1 2222.15   5
   3   0   5 22547.5 2182.43   4
  -3   0  -5 21136.8 2291.64   5
   3   0  -6-634.781 833.121   5
   3   0   6-726.562 395.719   2
   3   0   6-61.6663 713.044   4
   3   0   6-249.717 724.740   1
  -3   0   6-534.063 451.795   2
  -3   0   6-22.2583 750.676   4
   3   0  -6 846.423 942.679   7
  -3   0   6 212.016 590.871   1
  -3   0  -6-1142.81 847.540   5
  -3   0   7 1288.41 700.572   4
   3   0   7 393.949 961.174   4
  -3   0   7 1282.13 575.302   2
   3   0   7 579.425 597.130   1
   3   0  -7 1438.61 1192.13   7
   3   0  -7 302.227 1120.95   5
  -3   0   7 994.937 714.924   1
  -3  -1  -7 2173.63 1035.36   5
   3   1  -7 1347.27 971.913   7
  -3   1   7 2027.21 829.437   1
   3  -1   7 2455.04 1184.59   4
   3   1  -7 1328.49 1118.30   5
  -3   1   6 2670.05 892.345   1
  -3  -1  -6 1938.99 1208.17   5
  -3   1   6 3225.17 766.068   2
   3  -1   6 1791.21 1002.92   4
   3   1  -6 2981.21 1170.36   7
   3   1  -6 1433.88 994.987   5
  -3   1   6 1928.11 787.060   4
   3  -1   6 2402.45 659.615   2
   3   1  -5 10541.9 1848.19   7
  -3   1   5 9417.45 1347.49   1
   3  -1   5 9114.16 1113.15   2
  -3   1   5 8017.48 1142.14   4
   3  -1   5 7895.46 1516.35   4
   3  -1   5 9088.40 1210.75   6
  -3   1   5 8994.74 1183.68   2
  -3  -1  -5 7917.44 1634.70   5
   3   1  -5 10376.3 1580.39   5
  -3   1   4 4743.96 848.530   2
   3  -1   4 4280.79 725.714   2
  -3  -1  -4 4472.17 1178.08   5
   3  -1   4 6698.56 1131.45   7
   3  -1   4 3331.40 982.462   4
  -3   1   4 3766.54 970.639   7
   3  -1   4 6813.74 1428.57   3
   3   1  -4 5620.37 1187.25   7
  -3   1   4 4660.39 1019.43   5
  -3   1   4 5017.95 890.678   1
   3   1  -4 4612.51 949.543   5
   3  -1   4 4661.04 853.337   6
   3  -1   4 6672.27 1156.41   5
  -3   1   3 3838.21 757.886   5
   3  -1   3 3721.39 689.108   6
   3  -1   3 3853.52 852.796   4
  -3   1   3 4538.06 729.562   1
  -3   1   3 3447.39 657.633   2
   3   1  -3 4341.71 754.877   5
   3  -1   3 6412.52 1188.53   3
   3   1  -3 3919.44 890.927   7
   3  -1   3 4487.38 832.579   7
   3  -1   3 4866.86 906.685   5
  -3  -1  -3 3662.71 911.314   5
   3  -1   2 77933.3 3286.96   3
  -3  -1  -2 75240.1 3121.37   3
  -3   1   2 73451.4 2201.30   1
  -3   1   2 68079.0 1669.16   4
  -3   1   2 68113.8 2126.50   2
   3   1  -2 68809.3 2535.85   7
  -3  -1  -2 71958.3 2248.94   4
   3  -1   2 76175.5 2418.33   7
   3  -1   2 75076.4 2312.65   6
  -3  -1  -2 70020.9 2643.52   5
   3   1  -2 72408.9 2005.62   5
  -3   1   1 484497. 4801.35   2
  -3  -1  -1 497652. 5330.95   5
  -3   1   1 486231. 2796.41   4
   3   1  -1 484499. 4996.19   7
  -3   1   1 488616. 4722.54   7
  -3  -1  -1 479480. 4706.48   4
   3  -1   1 475115. 4039.50   7
  -3   1   0 415073. 4557.30   6
  -3  -1   0 407751. 4143.82   4
  -3   1  -1 488950. 4093.13   7
   3  -1  -1 487136. 4849.83   5
  -3  -1   1 493360. 5637.18   2
  -3  -1   1 496480. 5752.28   4
  -3   1  -1 479804. 5228.49   6
   3  -1  -1 499395. 4838.48   1
   3  -1  -2 72975.7 2265.46   2
   3  -1  -2 73206.8 2620.20   7
  -3   1  -2 71808.6 2372.28   7
   3   1   2 69295.3 2138.83   4
   3  -1  -2 67207.9 2135.10   1
   3  -1  -2 70844.4 2447.73   5
  -3  -1   2 68291.3 1910.35   5
   3   1   2 75938.0 2928.66   3
  -3  -1   2 70886.1 2522.76   2
  -3  -1   3 4358.83 738.541   5
   3   1   3 5258.15 1009.58   3
  -3  -1   3 4397.57 453.408   1
  -3   1  -3 3710.97 826.785   7
   3  -1  -3 4741.60 718.900   2
  -3  -1   3 3887.51 797.248   2
   3  -1  -3 4080.59 873.929   5
   3   1   3 4425.74 735.894   4
   3  -1  -3 3953.84 874.560   7
   3   1   4 4986.12 880.023   4
   3   1   4 4101.01 1066.76   5
   3   1   4 4666.34 374.052   2
   3   1   4 5992.79 1270.40   3
  -3   1  -4 4529.39 1034.42   7
   3  -1  -4 3734.09 1038.04   5
  -3  -1   4 4823.21 972.753   5
  -3  -1   4 5792.71 1061.75   7
   3  -1  -4 4591.35 1128.77   7
   3   1   4 5342.64 1038.99   7
   3  -1  -4 3774.73 777.874   2
  -3  -1   4 4852.31 943.156   2
  -3  -1   4 4125.68 564.114   1
  -3  -1   5 9970.15 1473.02   5
  -3  -1   5 10082.8 990.869   1
   3   1   5 10205.4 1435.93   4
  -3  -1   5 9310.69 1437.15   2
   3  -1  -5 9950.31 1705.53   7
   3   1   5 8780.41 593.334   2
   3  -1  -5 9597.19 1675.91   5
  -3   1  -5 8621.48 1625.40   7
   3   1   6 3063.32 956.545   4
  -3  -1   6 2928.40 973.592   2
   3   1   6 3853.26 1104.11   1
   3  -1  -6 3026.99 1182.23   5
  -3  -1   6 3713.94 731.489   1
   3  -1  -6 1530.17 1091.21   7
   3  -1  -7 3687.77 1327.06   5
   3   1   7 2325.86 1033.88   4
   3   1   7 2989.91 1172.65   1
  -3  -1   7 717.729 1050.39   4
  -3  -1   7 1524.72 660.716   2
  -3   2   7 541.217 617.294   1
  -3  -2  -7 583.385 1320.45   5
   3  -2   7-153.942 973.643   4
   3   2  -7 2328.35 977.221   7
  -3  -2  -6 1317.97 1154.06   5
  -3   2   6 1770.14 915.052   1
  -3   2   6 1423.64 562.574   4
   3  -2   6 1482.01 1119.93   4
   3  -2   6 1134.07 523.135   2
   3   2  -6 636.793 1163.78   7
  -3   2   6 1127.19 332.791   6
  -3   2   6 785.561 391.869   2
   3  -2   5 19129.6 2314.91   4
  -3   2   5 18868.5 1542.20   2
  -3   2   5 18972.7 1444.02   4
  -3  -2  -5 18379.6 2362.74   5
   3  -2   5 17106.7 1902.80   6
   3  -2   5 20498.5 1885.18   2
  -3   2   5 18218.7 1981.03   1
  -3   2   5 17920.0 1409.40   6
   3   2  -5 20805.8 2437.57   7
  -3   2   4 17666.5 1690.87   1
  -3   2   4 16797.3 1845.29   7
   3  -2   4 18733.1 1811.23   7
  -3   2   4 16404.8 1078.58   4
  -3   2   4 15258.9 1267.11   2
   3  -2   4 18115.9 1763.27   6
  -3   2   4 19914.9 1909.41   5
  -3   2   4 16180.5 1279.98   6
   3  -2   4 18139.5 1902.20   5
   3   2  -4 17097.5 1922.53   7
  -3  -2  -4 16521.8 1985.84   5
   3  -2   3 101438. 3596.67   6
  -3  -2  -3 94821.4 2936.03   4
  -3   2   3 95724.7 2814.96   2
  -3  -2  -3 89415.8 3739.82   5
  -3   2   3 91265.8 1735.04   4
   3  -2   3 92487.8 3245.72   7
  -3   2   3 103206. 3439.09   1
  -3   2   3 96942.8 3760.65   7
  -3   2   3 92379.4 2751.53   6
   3   2  -3 95288.4 3733.43   7
   3  -2   3 101338. 4806.07   3
  -3   2   3 82646.1 1788.46   4
   3  -2   3 98883.7 3613.82   5
  -3  -2  -2 52999.3 2534.49   3
   3  -2   2 55559.7 1985.40   7
   3  -2   2 51170.0 2371.26   6
   3  -2   2 52442.2 2881.96   3
  -3  -2  -2 49361.1 2387.85   5
  -3   2   2 54848.9 2347.57   7
  -3  -2  -2 52336.8 1864.87   4
   3   2  -2 55382.6 2344.63   7
  -3   2   2 54163.6 2005.75   6
  -3  -2  -1 14503.8 1078.06   5
  -3  -2  -1 15594.6 945.886   4
   3  -2   1 16067.7 1245.25   3
  -3  -2  -1 16250.3 1009.48   3
  -3   2   1 14833.1 1094.42   6
   3   2  -1 14628.7 1057.21   7
   3  -2   1 16381.4 708.442   7
  -3   2   1 15706.1 952.788   7
   3  -2   0 125960. 2570.21   1
  -3   2   0 128192. 3144.54   6
   3   2   0 130453. 1939.39   5
  -3  -2   0 129966. 2870.18   4
  -3  -2   0 132519. 2095.53   5
  -3   2  -1 14642.3 1261.91   3
   3  -2  -1 15236.8 1007.45   2
  -3   2  -1 15171.0 1214.96   6
   3   2   1 13666.9 912.885   4
   3   2   1 15193.4 1053.89   5
  -3   2  -1 15650.3 752.936   7
   3  -2  -1 15232.4 1077.86   6
   3  -2  -1 15750.5 1078.72   1
   3   2   2 52614.3 2316.34   3
   3  -2  -2 51714.0 2256.97   7
   3  -2  -2 50721.2 2295.11   5
  -3  -2   2 48892.2 2394.01   2
  -3   2  -2 48215.0 1971.10   7
   3  -2  -2 51814.8 2029.34   2
   3   2   2 52132.7 1782.44   4
  -3  -2   2 51278.4 1564.90   5
   3  -2  -2 51925.1 2181.02   1
  -3  -2   3 97540.9 3463.93   7
  -3  -2   3 90342.4 2814.90   5
   3   2   3 94784.9 2741.11   4
   3  -2  -3 95818.5 3719.60   7
   3  -2  -3 88020.7 2903.08   2
   3   2   3 95032.1 3916.22   3
   3  -2  -3 88076.3 3567.11   5
  -3  -2   3 91560.6 3571.63   2
  -3   2  -3 91101.7 3375.37   7
   3   2   4 15535.8 2012.27   3
   3  -2  -4 18313.5 1971.30   7
  -3  -2   4 14271.7 1645.76   2
  -3  -2   4 15275.5 1504.42   5
   3  -2  -4 14985.1 1804.39   5
   3  -2  -4 17161.7 1472.52   2
   3   2   4 14942.3 1355.24   4
  -3   2  -4 15480.8 1723.95   7
  -3  -2   5 16384.5 861.461   1
   3   2   5 23724.3 1927.83   4
  -3  -2   5 19337.2 2127.40   2
   3  -2  -5 22085.5 1799.57   2
   3  -2  -5 16352.8 2162.66   5
  -3  -2   5 19976.4 1906.54   5
  -3   2  -5 18977.5 2188.18   7
   3   2   6 1128.10 809.465   1
   3   2   6 2088.28 686.624   4
  -3  -2   6 1404.36 643.456   2
  -3   2  -6 1880.66 909.857   7
   3  -2  -6 2035.33 1055.26   5
   3  -2  -7 1463.98 1090.39   5
   3   2   7 387.316 797.076   1
  -3  -2   7 1587.00 835.457   2
   3   3  -7 1519.90 1317.73   7
  -3  -3  -7 1834.12 1164.07   5
  -3   3   7 4136.16 1365.71   1
   3  -3   7 3321.17 1549.43   4
  -3  -3  -6 3171.99 1511.21   5
  -3   3   6 3626.19 1128.71   1
   3  -3   6 3509.64 1359.12   4
   3  -3   6 1914.95 823.616   2
   3   3  -6 5173.04 1533.14   7
  -3  -3  -5 1601.72 1093.52   5
  -3   3   5 1768.41 992.314   1
  -3   3   5 1093.18 257.170   4
   3  -3   5 1052.39 952.776   4
  -3   3   5 1181.21 403.057   6
  -3   3   5 1285.79 264.192   4
   3   3  -5 1078.30 786.550   7
  -3  -3  -4 866.355 167.277   2
   3  -3   4 1144.33 634.072   5
  -3  -3  -4 1009.20 781.846   5
   3  -3   4 2039.76 801.829   7
  -3   3   4 563.355 449.900   6
  -3   3   4 1202.87 684.665   1
  -3   3   4 6.93921 795.674   3
   3  -3   4 1219.96 801.414   6
   3   3  -4 760.608 674.349   7
  -3  -3  -3 1631.11 330.724   2
   3   3  -3 1756.31 764.362   7
   3  -3   3 1370.74 639.924   5
   3  -3   3 716.311 706.101   3
  -3   3   3 905.904 585.400   7
   3  -3   3 1638.74 671.744   6
  -3  -3  -3 1455.08 739.663   5
   3  -3   3 1205.81 573.474   7
  -3   3   3 1332.71 629.243   1
  -3  -3  -3 1790.59 457.778   4
  -3   3   3 1456.29 487.302   6
  -3  -3  -2 110004. 3467.66   3
  -3   3   2 114697. 3521.28   7
   3  -3   2 112809. 4357.51   3
  -3   3   2 114014. 3292.67   6
   3   3  -2 118665. 3536.52   7
   3  -3   2 121217. 2843.12   7
   3  -3   2 117171. 4111.40   6
  -3  -3  -2 108537. 2754.96   4
  -3  -3  -2 111722. 3793.59   5
  -3  -3  -2 114480. 2458.25   6
   3  -3   1 33389.4 1834.72   3
  -3  -3  -1 30315.9 1659.29   5
   3  -3   1 32155.9 1421.95   1
  -3   3   1 33709.6 1852.82   6
  -3   3   1 33911.3 1493.75   7
  -3  -3  -1 31822.9 1513.01   4
   3   3  -1 34360.0 1189.90   1
  -3   3   0 96049.2 2272.23   3
  -3   3   0 90144.9 2516.63   1
  -3  -3   0 92776.5 2893.24   4
   3  -3   0 93872.0 2625.97   1
  -3  -3   0 93134.4 2201.96   5
  -3   3  -1 31193.8 2021.84   6
   3  -3  -1 33209.6 1781.31   1
   3   3   1 26459.9 1513.84   4
   3  -3  -1 30121.1 1755.79   6
  -3  -3   1 26787.8 2073.58   4
  -3   3  -1 30918.9 1150.76   7
   3   3   1 32591.5 1612.41   5
  -3   3  -2 108733. 2942.18   7
   3   3   2 114351. 3693.84   5
  -3  -3   2 109307. 2313.14   5
   3   3   2 108467. 2763.29   4
   3  -3  -2 107175. 3635.64   5
   3  -3  -2 110318. 3254.18   6
   3  -3  -2 115057. 3596.59   1
   3  -3  -2 114471. 3187.92   2
  -3  -3   3 1617.74 662.110   7
   3  -3  -3 1428.71 704.586   5
   3  -3  -3 826.894 430.801   2
   3   3   3 1296.97 587.703   7
   3   3   3 1309.61 703.797   5
   3   3   3 1696.53 652.383   3
   3   3   3 1624.29 468.218   4
  -3  -3   3 1419.12 461.955   5
  -3   3  -3 1342.03 566.683   7
   3  -3  -4 911.515 800.029   5
   3   3   4 819.853 419.518   3
   3  -3  -4 1220.82 534.775   2
  -3  -3   4 873.427 531.221   5
  -3   3  -4 1200.69 727.922   7
   3   3   4 1301.88 514.517   4
  -3  -3   4 342.203 640.173   2
  -3   3  -5-103.190 713.185   7
   3   3   5 1684.83 863.605   1
   3  -3  -5 8.30647 655.863   2
  -3  -3   5 1151.74 613.299   2
  -3  -3   5-838.270 734.524   5
   3   3   5 1275.14 598.518   4
   3  -3  -5 1340.03 977.912   5
  -3   3  -6 1680.65 963.371   7
   3  -3  -6 4133.07 1318.84   5
   3   3   6 3352.89 1193.17   1
  -3  -3   6 2941.38 1207.75   2
   3   3   6 2159.10 821.845   4
   3  -3  -7 3571.07 1496.64   5
   3   3   7 3828.63 1252.67   1
  -3   3  -7 2246.86 1123.93   7
  -3  -3   7 5089.13 1223.49   2
  -3  -4  -6 1764.60 1215.52   5
  -3   4   6 6805.08 1526.33   1
   3  -4   6 4683.46 1200.31   2
   3  -4   6 6934.57 1837.32   4
   3   4  -6 5609.37 1468.29   7
  -3   4   5 2904.75 615.811   6
  -3   4   5 4698.35 1273.34   1
  -3   4   5 3442.51 1020.76   3
   3   4  -5 3660.09 1348.56   7
  -3  -4  -5 5913.81 1562.45   5
   3  -4   4 10579.3 1583.66   5
  -3  -4  -4 12251.7 1149.50   4
   3   4  -4 10517.6 1636.05   7
  -3   4   4 10984.7 1651.01   1
  -3   4   4 11305.9 1161.67   6
  -3  -4  -4 11639.9 847.736   2
  -3   4   4 10585.4 1547.00   3
  -3  -4  -4 10842.6 1744.46   5
   3  -4   4 12035.4 1494.16   7
  -3   4   3 24432.9 2129.88   1
  -3  -4  -3 24478.8 1314.53   2
  -3  -4  -3 22498.2 1423.71   4
   3  -4   3 23548.5 1226.96   1
  -3   4   3 21838.7 1884.25   3
  -3  -4  -3 22509.5 2185.82   5
   3  -4   3 26497.3 2653.24   3
   3  -4   3 26172.2 2532.81   6
  -3  -4  -3 23801.0 1198.16   6
   3   4  -3 22006.0 1998.83   7
  -3   4   3 24679.0 2083.79   7
   3  -4   3 24810.4 1759.74   7
  -3   4   3 23540.9 1717.19   6
  -3  -4  -2 6061.90 1051.67   5
   3  -4   2 5389.63 662.162   1
   3  -4   2 6609.64 1262.59   6
  -3   4   2 6704.10 969.929   7
  -3   4   2 4571.63 874.158   6
  -3  -4  -2 5811.10 738.807   4
  -3  -4  -2 6862.49 855.125   6
   3   4  -2 5233.27 913.067   7
   3  -4   2 8560.77 1308.10   3
  -3  -4  -1 42663.4 1484.68   3
  -3  -4  -1 43799.7 2171.81   5
   3   4  -1 45029.7 1659.98   1
  -3   4   1 44109.0 2420.19   6
  -3  -4  -1 43399.7 2251.05   6
   3  -4   1 45981.1 1945.67   1
  -3  -4  -1 44353.5 2031.60   4
   3  -4   1 41893.3 2144.56   3
  -3   4   1 42625.6 2262.92   1
   3  -4   0 74854.0 2724.72   1
  -3   4   0 72075.6 3257.04   6
  -3   4   0 73647.7 2576.62   1
   3   4   0 72538.9 2513.99   1
  -3  -4   0 72299.8 2948.49   4
   3  -4   0 71427.4 3244.57   6
  -3  -4   0 69900.9 2278.58   5
   3  -4  -1 44234.1 2415.72   6
   3   4   1 45419.5 2300.74   1
   3  -4  -1 45090.6 2314.51   5
  -3  -4   1 46788.9 2762.60   4
  -3   4  -1 46780.1 1601.84   7
   3  -4  -1 38423.6 2195.80   1
   3  -4  -2 6228.31 989.755   6
  -3   4  -2 6320.35 799.192   7
   3   4   2 6402.57 879.460   4
   3  -4  -2 5439.60 1032.31   1
   3  -4  -2 7023.76 1147.59   5
   3   4   2 7196.18 1043.57   5
   3   4   3 24219.2 1503.73   4
  -3  -4   3 23046.3 1466.98   5
   3   4   3 23212.0 2116.99   1
   3  -4  -3 22425.2 1707.68   2
  -3   4  -3 24847.4 1852.87   7
   3  -4  -3 21879.5 2137.20   5
   3  -4  -4 11618.1 1979.12   5
   3  -4  -4 11171.7 1307.28   2
  -3  -4   4 8814.84 1600.72   2
  -3   4  -4 11726.7 1561.58   7
   3   4   4 11194.7 1084.89   4
   3   4   4 9605.97 1609.75   1
  -3  -4   4 12900.4 1346.71   5
   3   4   5 6521.24 1344.54   3
  -3  -4   5 4871.55 1341.66   2
   3  -4  -5 5508.45 1533.02   5
   3  -4  -5 5598.97 1052.50   2
  -3  -4   5 3350.41 889.336   5
   3   4   5 3628.60 1199.51   1
  -3   4  -5 4841.37 1301.91   7
   3   4   5 6137.00 887.364   4
  -3  -4   6 5859.79 1511.47   2
   3   4   6 6612.87 1542.04   1
   3  -4  -6 5902.89 1531.00   5
  -3   4  -6 4110.30 1325.27   7
   3   5  -6 860.853 994.149   7
  -3  -5  -6 2169.35 868.731   5
   3  -5   6 1196.02 1127.28   4
  -3   5   6 1064.60 1149.29   1
  -3  -5  -5 2117.69 1011.07   5
  -3   5   5-436.704 826.636   1
   3   5  -5 2092.54 869.200   7
   3  -5   4 4161.31 533.394   1
  -3   5   4 4720.56 1226.55   1
  -3  -5  -4 3832.24 1194.64   5
  -3  -5  -4 4283.31 696.960   4
  -3   5   4 3233.52 935.926   3
  -3  -5  -4 3797.70 686.952   2
   3   5  -4 5090.37 1131.39   7
  -3   5   4 3228.41 738.484   6
   3  -5   3 17050.3 2205.97   3
  -3   5   3 14952.5 1243.10   3
   3  -5   3 13393.3 1054.11   1
  -3  -5  -3 16920.8 1307.23   4
  -3   5   3 14268.2 1571.02   6
  -3  -5  -3 15885.0 1265.90   6
  -3   5   3 16433.7 1925.47   1
  -3   5   3 15854.5 1785.50   7
   3   5  -3 14520.3 1738.76   7
  -3  -5  -3 14725.7 1866.73   5
   3  -5   2 8760.44 941.585   1
  -3   5   2 10165.0 1263.29   7
  -3  -5  -2 8636.60 1364.94   5
  -3   5   2 9715.72 1448.24   1
  -3  -5  -2 9642.29 1044.76   4
  -3  -5  -2 9832.46 1183.87   6
   3  -5   2 9042.92 1458.92   3
   3   5  -2 11414.4 1368.77   7
  -3   5   2 11044.2 1409.79   6
   3   5  -1 27649.2 1546.16   1
  -3   5   1 28306.7 2053.13   1
  -3   5   1 28563.4 2265.09   6
   3  -5   1 26486.6 1728.65   1
  -3  -5  -1 27800.1 1848.23   4
   3  -5   1 25813.7 1755.82   3
  -3  -5  -1 29561.3 2016.26   5
   3  -5   1 32793.8 2669.97   6
  -3  -5  -1 24767.7 971.043   3
  -3  -5  -1 28016.3 2159.05   6
  -3  -5   0 394.633 287.913   5
   3   5   0 539.320 466.250   1
  -3   5   0 516.422 461.388   1
  -3  -5   0 1234.10 527.660   4
   3  -5   0 630.699 598.642   6
  -3  -5   0 566.027 530.053   6
   3  -5   0 926.931 540.877   1
  -3  -5   1 30318.3 2494.77   4
   3  -5  -1 29933.6 2312.66   6
  -3   5  -1 27855.7 1444.66   7
   3  -5  -1 28817.1 1748.58   4
   3   5   1 29429.5 2075.09   1
  -3  -5   1 28163.3 1462.23   5
   3  -5  -1 26466.9 2021.35   1
   3  -5  -1 28698.3 2091.44   5
   3  -5  -2 8133.99 1205.39   6
  -3   5  -2 8839.48 1006.62   7
   3  -5  -2 9456.98 622.674   4
   3   5   2 9191.81 1404.15   1
   3  -5  -2 8743.69 1401.51   5
   3  -5  -3 14811.5 1493.07   2
  -3  -5   3 14904.6 1242.20   5
  -3   5  -3 14967.5 1547.74   7
   3   5   3 16739.7 1988.10   1
   3  -5  -3 14515.8 1835.19   5
   3   5   3 13063.4 1352.55   4
  -3  -5   4 3322.50 778.581   5
   3   5   4 4212.06 776.526   4
  -3   5  -4 3518.20 999.292   7
   3  -5  -4 4306.94 958.206   2
   3   5   4 4789.44 1289.56   1
   3  -5  -4 3656.15 1245.38   5
   3  -5  -5 1441.22 1018.10   5
  -3   5  -5-139.068 789.705   7
  -3  -5   5 1473.04 656.813   2
   3   5   5 1033.61 851.982   1
  -3   5  -6 366.643 560.841   7
   3   5   6 1352.49 1018.92   1
  -3  -5   6 1131.11 866.628   2
   3   6  -5 4471.32 1381.95   7
  -3   6   5 3990.15 1395.85   1
  -3  -6  -5 3037.26 1308.12   5
  -3   6   4 11745.5 2002.18   1
  -3  -6  -4 12681.4 2202.88   5
   3   6  -4 11708.5 1929.86   7
  -3   6   3 2209.43 1076.76   1
  -3  -6  -3 2176.79 944.070   5
   3   6  -3 1012.80 809.220   7
  -3  -6  -3 587.552 401.071   4
   3  -6   3 1815.01 509.703   1
  -3  -6  -3 1047.89 672.554   6
  -3   6   2 4154.88 787.278   7
  -3   6   2 3960.12 1064.23   1
   3   6  -2 3440.84 879.817   7
  -3  -6  -2 4160.77 756.886   4
  -3  -6  -2 3009.81 997.822   5
   3  -6   2 3939.34 904.656   3
  -3  -6  -2 3623.47 959.518   6
   3  -6   2 2895.67 603.117   1
  -3  -6  -1 7174.62 1209.69   6
  -3   6   1 6077.72 1149.83   1
  -3  -6  -1 4277.60 939.011   4
  -3  -6  -1 5550.68 1051.94   5
   3  -6   1 5418.84 930.000   1
   3   6  -1 5340.73 885.047   1
   3   6   0 7268.71 1099.06   1
  -3  -6   0 5315.83 903.234   5
  -3   6   0 4739.49 941.607   1
   3  -6   0 5851.68 966.068   1
  -3  -6   0 5416.07 1141.14   4
   3  -6  -1 5030.55 1089.60   5
  -3  -6   1 5667.54 847.241   5
   3   6   1 5892.31 1130.90   1
  -3   6  -1 6056.59 825.277   7
   3  -6  -1 6052.03 959.703   4
  -3   6  -2 3253.87 696.827   7
   3  -6  -2 3629.62 530.524   4
   3  -6  -2 4132.80 1022.71   6
   3   6   2 4326.90 1083.16   1
   3  -6  -2 4323.78 1132.41   5
  -3   6  -3 778.538 539.480   7
   3  -6  -3 609.637 432.524   6
   3  -6  -3 278.706 529.677   5
   3   6   3 2319.02 1068.04   1
  -3  -6   3 1593.91 605.560   5
   3  -6  -4 11774.7 2053.94   5
  -3   6  -4 11362.9 1635.09   7
   3   6   4 11943.1 1957.69   1
   3   6   5 2574.04 1439.87   1
   3  -6  -5 3615.99 1398.90   5
  -3   6  -5 3038.71 1096.57   7
  -3  -6   5 3686.52 1304.73   2
  -3  -7  -5 1781.10 1174.75   5
  -3   7   5 1939.45 1057.24   1
   3   7  -5 5226.34 1536.01   7
  -3   7   4 341.212 801.534   1
   3   7  -4 1097.95 773.642   7
  -3  -7  -4 4.92400 986.776   5
  -3  -7  -3 3013.67 1013.41   5
  -3   7   3 358.517 720.654   1
   3   7  -3 1491.53 782.138   7
   3  -7   2 356.482 407.744   3
  -3   7   2 113.766 551.033   7
  -3  -7  -2-842.488 774.445   5
  -3  -7  -2-319.967 558.894   4
  -3   7   2-436.918 790.975   1
   3   7  -2 146.377 702.733   7
   3  -7   2 1910.09 607.844   1
  -3  -7  -1 6004.82 1213.68   5
   3   7  -1 6378.69 1034.76   1
  -3   7   1 6134.71 1255.95   1
  -3  -7  -1 6947.75 1214.88   4
  -3  -7   0 1720.62 747.462   5
   3   7   0 1720.78 727.211   1
  -3   7   0 1797.29 755.765   1
   3   7   1 6759.65 1389.79   1
   3  -7  -1 4859.08 1151.66   5
  -3  -7   1 6647.17 1029.76   5
  -3  -7   1 6464.75 1055.57   3
   3  -7  -1 6132.39 1114.50   4
  -3   7  -1 7652.85 1015.53   7
   3  -7  -2-923.145 658.139   5
   3   7   2 660.104 702.891   1
  -3   7  -2 1.93102 495.702   7
  -3  -7   2-968.450 449.896   5
  -3  -7   2-1701.63 933.502   3
   3  -7  -3 357.972 703.156   5
   3   7   3 85.0089 783.839   1
  -3   7  -3 1730.29 746.910   7
   3   7   4-400.922 1089.60   1
  -3   7  -4-150.809 586.773   7
   3  -7  -4 1062.85 703.079   5
   3   7   5-1250.05 1195.58   1
   3  -7  -5 2654.68 1235.54   5
  -3  -7   5 2564.92 1333.70   2
   3   8  -4 643.548 691.239   7
  -3   8   4 1553.38 1013.48   1
  -3  -8  -4 2096.94 1253.67   5
  -3  -8  -3 1886.64 749.469   5
  -3   8   3 509.275 823.398   1
   3   8  -3 415.127 946.890   7
  -3  -8  -2 1544.58 969.911   5
  -3   8   2 3217.31 1193.19   1
   3   8  -2 1975.56 812.867   7
  -3  -8  -1 1866.87 814.072   5
   3   8  -1 438.500 373.823   1
  -3   8   1-435.616 862.957   1
   3   8  -1 162.551 697.130   7
   3   8   0 376.870 542.302   1
   3  -8   0 398.138 601.682   5
  -3  -8   0-410.320 396.347   5
  -3   8  -1-990.715 621.663   7
   3  -8  -1 222.369 719.104   5
   3   8   1 789.645 635.084   1
  -3  -8   1 79.8372 515.918   5
  -3  -8   2 2875.00 687.756   5
  -3   8  -2 1359.34 609.846   7
   3   8   2 2738.82 1183.46   1
   3  -8  -2 1661.57 1222.10   5
   3  -8  -3 1852.80 1279.38   5
   3   8   3-1587.85 1295.25   1
   3  -8  -4-3620.07 1719.84   5
   3   8   4 2571.69 1396.54   1
  -3  -9  -2 1741.98 1060.12   5
   3   9  -2 33.9422 708.891   7
  -3  -9  -1 1146.31 792.300   5
   3  -9   1 1413.23 788.139   5
   3   9  -1 1511.89 678.967   7
  -3   9   1 2173.67 888.583   1
   3   9  -1 2432.13 663.125   1
  -3  -9   0 636.596 671.009   5
   3  -9   0-367.689 719.736   5
   3   9   0 905.877 854.731   1
   3  -9  -1 621.284 809.501   5
   3   9   1 1956.55 927.149   1
   3  -9  -2-1947.02 1197.95   5
   3   9   2 547.607 974.635   1
  -4   0   0 120503. 2190.10   2
  -4   0   0 121720. 2225.35   4
  -4   0   1 11594.8 727.776   4
  -4   0  -1 13823.5 935.791   4
  -4   0   1 11933.9 896.106   2
   4   0  -1 12147.0 657.749   5
  -4   0  -1 12459.3 734.858   6
   4   0  -1 10863.2 804.480   7
   4   0   1 12423.1 595.169   2
   4   0  -1 11041.5 775.265   4
   4   0   2 6202.72 936.825   3
   4   0  -2 6447.52 864.435   7
   4   0   2 6149.39 797.644   4
  -4   0   2 6336.41 654.516   5
  -4   0   2 5986.73 550.689   1
  -4   0  -2 6287.96 818.270   4
   4   0   2 6315.50 550.669   6
  -4   0  -2 5781.70 816.484   5
  -4   0  -2 7189.84 585.381   6
   4   0   2 5185.86 703.023   7
  -4   0   2 6372.92 802.556   2
   4   0  -2 6239.54 773.190   2
  -4   0   2 6232.28 695.172   4
   4   0  -2 5299.90 543.688   1
   4   0  -2 4978.93 634.760   5
  -4   0  -3 1579.90 750.513   5
   4   0   3 2082.94 710.521   3
  -4   0   3 1906.14 435.417   1
   4   0   3 1817.85 360.619   6
  -4   0   3 2337.96 582.800   5
   4   0  -3 1837.84 590.825   2
   4   0   3 2053.48 645.873   4
   4   0   3 2601.24 750.943   7
   4   0  -3 2417.10 635.051   5
   4   0  -3 1764.72 648.051   7
  -4   0   3 2047.90 606.925   2
  -4   0   4 26.0200 519.160   7
   4   0  -4 198.352 455.800   5
   4   0   4-456.663 554.109   5
   4   0  -4-1087.06 733.435   7
   4   0   4 264.912 742.679   7
   4   0   4 1155.29 729.456   3
   4   0  -4-472.092 504.675   2
  -4   0   4 329.072 349.086   1
  -4   0   4 152.799 541.186   5
  -4   0   4-112.275 562.463   2
   4   0   4 41.6828 552.887   4
  -4   0  -4 507.208 622.373   5
   4   0   4 64.7216 294.383   6
   4   0   4-425.260 299.101   2
   4   0  -5 16861.8 2023.08   5
  -4   0  -5 20269.2 2337.78   5
   4   0   5 17309.7 1966.76   4
   4   0   5 19162.2 1276.34   6
  -4   0   5 18329.8 1861.31   2
  -4   0   5 20199.2 1611.57   1
   4   0   5 19145.8 1182.71   2
   4   0  -5 18145.4 2351.69   7
   4   0  -6 15026.9 2110.01   5
   4   0   6 12079.3 962.242   2
  -4   0   6 13755.9 1706.68   2
   4   0   6 16854.6 2144.70   4
  -4   0   6 12845.0 1482.68   1
   4   0  -6 18410.9 2574.71   7
   4   0  -7 3463.54 1360.30   5
   4   0   7 4432.67 1104.26   1
   4   0  -7 4948.32 1568.13   7
   4   0   7 3763.88 1327.13   4
  -4   0   7 3491.86 828.511   2
  -4   0   7 2465.24 1033.69   4
   4  -1   7 301.635 842.708   4
  -4  -1  -7-199.858 1246.07   5
  -4   1   7 158.876 584.447   1
   4  -1   7 270.770 537.928   1
   4   1  -7-605.876 772.127   7
   4   1  -7-1322.76 972.562   5
  -4   1   6-737.931 721.108   1
   4  -1   6 575.029 797.979   4
   4   1  -6 795.348 881.841   7
  -4  -1  -6-148.366 957.210   5
   4   1  -6-221.007 895.483   5
  -4   1   6 719.224 619.005   4
  -4   1   6 281.118 462.265   2
   4  -1   6-156.763 316.970   2
  -4   1   5 27973.9 2120.32   1
   4   1  -5 24878.1 2267.35   5
   4  -1   5 24796.7 1748.03   2
   4   1  -5 29177.4 2911.34   7
   4  -1   5 26519.0 1928.02   6
  -4   1   5 23491.1 1927.77   2
   4  -1   5 26803.6 2536.40   4
  -4  -1  -5 26923.9 2708.28   5
   4  -1   4 42631.4 3507.04   3
   4  -1   4 40546.6 2161.59   6
   4  -1   4 36641.0 2645.44   4
   4  -1   4 41342.1 2691.31   7
  -4   1   4 40632.7 2568.18   5
  -4   1   4 44354.2 2871.90   7
  -4   1   4 38372.7 2187.21   1
  -4   1   4 36565.6 2158.37   2
   4   1  -4 40065.4 2861.74   7
   4  -1   4 46250.9 2943.69   5
  -4  -1  -4 35736.9 2745.64   5
   4   1  -4 39451.4 2393.26   5
  -4   1   3 29299.8 1674.78   1
  -4  -1  -3 27284.3 1815.60   4
   4  -1   3 29008.5 1666.69   6
  -4   1   3 27923.3 1808.79   5
   4  -1   3 31259.5 2589.76   3
   4   1  -3 28906.6 1686.62   5
   4  -1   3 28611.4 2079.41   4
  -4   1   3 29687.2 1764.20   2
   4   1  -3 29129.1 2115.15   7
  -4   1   3 30007.6 2069.08   7
  -4  -1  -3 29901.1 2184.52   5
   4  -1   3 28250.0 2032.95   5
   4  -1   3 26844.0 1837.17   7
  -4  -1  -2 20005.2 1733.00   3
   4  -1   2 24614.0 1390.41   6
   4  -1   2 22188.0 1344.37   7
  -4   1   2 20630.2 893.036   4
   4  -1   2 22742.9 1842.62   3
  -4  -1  -2 20246.0 1312.97   4
  -4   1   2 21618.6 1321.42   2
   4   1  -2 21834.6 1498.38   7
   4   1  -2 22965.6 806.243   1
  -4   1   2 21287.2 1235.19   1
  -4  -1  -2 18605.0 1483.45   5
  -4   1   2 22154.6 1429.57   7
   4   1  -2 22726.0 1117.39   5
  -4   1   2 21186.1 1303.96   5
  -4   1   1 45943.4 1657.71   2
  -4  -1  -1 45746.6 1636.44   4
  -4   1   1 45581.5 1099.46   4
  -4  -1  -1 43729.8 1680.36   5
  -4  -1  -1 44536.6 1073.13   2
   4  -1   1 42232.3 1222.57   7
  -4   1   1 42727.2 1421.34   7
   4   1  -1 40593.0 1587.77   7
  -4   1   0 223714. 3129.53   4
  -4   1   0 229252. 3703.43   6
  -4  -1   0 227499. 3435.31   4
  -4  -1   0 226793. 3351.98   2
   4   1   0 223494. 2421.91   5
   4  -1  -1 45459.6 1111.74   4
  -4   1  -1 44702.8 1831.67   4
   4  -1  -1 45477.7 1552.20   1
  -4  -1   1 47012.5 1791.81   4
   4  -1  -1 46710.9 1577.27   7
  -4   1  -1 46049.1 1735.28   6
  -4  -1   1 44996.1 1846.91   2
   4  -1  -2 20975.2 1250.95   1
   4  -1  -2 20326.8 1333.34   2
  -4  -1   2 22452.3 1529.26   2
  -4   1  -2 20686.4 1271.80   6
  -4   1  -2 21469.3 1328.18   7
   4  -1  -2 22107.1 1519.51   7
   4  -1  -2 22935.5 1425.24   5
   4   1   2 20849.6 1268.32   4
  -4  -1   2 21742.7 1044.39   5
   4   1   2 24464.8 1747.78   3
   4   1   3 29618.6 2359.48   3
  -4  -1   3 30195.9 1694.69   5
  -4   1  -3 29784.3 1965.29   7
   4  -1  -3 27315.7 2082.78   7
  -4  -1   3 28782.5 1062.09   1
   4  -1  -3 31712.7 1860.27   2
  -4  -1   3 29310.5 1960.81   2
   4   1   3 32042.3 1841.38   4
   4  -1  -3 29163.8 1955.93   5
  -4  -1   4 41796.9 2681.60   7
   4  -1  -4 39772.4 2644.39   5
  -4  -1   4 39894.0 1543.20   1
  -4   1  -4 39506.1 2671.66   7
   4   1   4 44873.6 2998.19   5
   4  -1  -4 40798.5 2363.23   2
   4   1   4 37221.6 3123.26   3
   4   1   4 38112.4 2314.73   4
   4  -1  -4 41959.9 2925.05   7
   4   1   4 38389.6 2687.25   7
  -4  -1   4 38349.5 2302.27   5
  -4  -1   4 38613.9 2496.14   2
  -4  -1   5 25594.3 2268.48   2
  -4  -1   5 25643.8 2259.49   5
   4   1   5 27182.9 2250.06   4
  -4  -1   5 26818.9 1514.16   1
   4  -1  -5 27839.6 2182.21   2
   4  -1  -5 25919.0 2653.99   7
   4  -1  -5 25019.4 2558.80   5
   4  -1  -6 437.237 916.250   5
  -4  -1   6-13.1583 299.755   1
   4  -1  -6 950.287 945.049   7
  -4  -1   6-961.778 667.066   2
   4   1   6-318.184 879.044   4
   4  -1  -7 3674.54 1236.41   7
  -4  -1   7-1452.00 1077.64   4
  -4  -1   7 641.237 647.818   2
   4   1   7 367.823 724.642   1
   4  -1  -7 2854.39 993.397   5
   4   1   7 738.378 881.070   4
  -4   2   7 4721.84 1213.08   1
   4   2  -7 5104.46 1797.00   7
  -4  -2  -7 5515.62 1786.70   5
   4  -2   7 3460.73 1325.90   4
   4  -2   6 2114.56 693.991   2
  -4   2   6 1491.86 834.748   1
   4  -2   6 2093.98 1050.77   4
  -4  -2  -6 2510.09 1160.35   5
  -4   2   6 2475.72 672.954   4
  -4   2   6 1797.77 690.025   2
  -4   2   6 1845.60 487.075   6
   4   2  -6 3168.23 1337.41   7
  -4   2   5 5958.27 989.133   2
  -4   2   5 7928.33 1042.65   6
   4   2  -5 7961.50 1706.05   7
  -4   2   5 8643.28 982.949   4
  -4   2   5 6839.55 950.084   4
   4  -2   5 7241.34 1291.26   6
   4  -2   5 6900.30 1217.97   2
  -4  -2  -5 8243.74 1750.25   5
   4  -2   5 8953.54 1770.98   4
  -4   2   5 7249.12 1343.44   1
   4  -2   4 377.840 523.761   5
   4  -2   4 287.397 393.057   7
   4   2  -4-449.296 730.225   7
   4  -2   4 232.639 813.578   4
  -4   2   4-337.762 577.110   1
  -4   2   4 167.198 195.380   4
  -4   2   4 115.993 358.325   6
  -4   2   4 125.408 362.988   2
  -4  -2  -4 545.371 704.709   5
   4   2  -4-295.469 447.175   5
  -4   2   4 338.431 266.677   4
   4  -2   4-71.7502 612.802   6
  -4  -2  -3 3606.18 907.635   5
  -4   2   3 2885.78 774.910   7
   4  -2   3 4224.76 993.331   3
  -4   2   3 3817.48 842.513   5
  -4   2   3 2491.93 317.567   4
  -4   2   3 2516.05 623.810   2
  -4  -2  -3 3006.19 635.581   4
  -4  -2  -3-55.1679 875.769   3
   4  -2   3 3307.75 731.185   6
   4   2  -3 2397.01 786.107   7
   4  -2   3 3582.50 875.141   5
   4  -2   3 2843.99 698.891   7
  -4   2   3 2635.05 296.866   4
  -4   2   3 2603.15 627.478   6
  -4   2   3 4236.70 878.387   1
  -4  -2  -2 84099.7 3197.01   3
   4  -2   2 82867.8 3587.06   3
  -4  -2  -2 84180.5 3118.71   5
  -4  -2  -2 84739.4 2548.36   4
   4  -2   2 85227.8 2443.09   7
  -4   2   2 81179.3 2811.55   7
   4   2  -2 86328.2 2965.22   7
   4  -2   2 83017.2 3031.90   6
  -4   2   2 85067.2 2714.16   6
  -4   2   1 69711.6 1923.12   7
  -4  -2  -1 62834.8 2017.65   4
  -4   2   1 65418.0 2325.33   6
   4  -2   1 66946.2 1306.98   7
   4   2  -1 64797.9 2271.90   7
  -4  -2  -1 66763.1 2232.32   5
   4  -2   1 71261.0 2582.76   3
   4  -2   0 172810. 3160.03   4
  -4   2   0 177062. 3870.39   6
  -4  -2   0 176144. 3495.87   4
  -4  -2   0 171205. 2445.26   5
   4   2   0 173568. 2314.16   5
   4  -2  -1 68440.7 1273.87   4
   4  -2  -1 63614.3 2307.27   6
  -4  -2   1 70498.8 2639.69   4
  -4  -2   1 69510.9 2598.73   2
  -4   2  -1 68029.3 2540.94   6
   4   2   1 60068.6 2020.84   4
  -4   2  -1 69282.3 1456.03   7
  -4   2  -1 67152.0 2663.59   3
   4  -2  -1 70027.3 2261.38   1
   4   2   1 68577.7 2221.83   5
   4  -2  -2 82476.4 2913.80   5
   4   2   2 82680.2 2429.66   4
  -4   2  -2 83166.2 2492.07   7
   4  -2  -2 90776.9 2834.05   2
  -4  -2   2 86905.0 1850.40   5
  -4  -2   2 84694.2 3200.99   2
  -4   2  -2 81554.4 3006.05   6
   4  -2  -2 88177.4 2926.48   7
  -4   2  -2 87067.1 3871.60   3
   4  -2  -2 81383.8 2780.77   1
   4  -2  -3 2145.98 728.629   7
   4   2   3 3291.08 812.769   3
   4  -2  -3 3105.30 717.242   2
  -4  -2   3 3100.99 596.236   5
   4  -2  -3 2717.06 835.579   5
  -4  -2   3 1820.69 730.789   2
  -4   2  -3 3010.75 752.290   7
   4   2   3 3397.67 666.696   4
  -4   2  -4 170.124 503.267   7
  -4  -2   4 1008.31 494.016   5
   4  -2  -4 544.309 401.133   2
   4   2   4 177.994 473.678   4
  -4  -2   4 215.785 513.606   2
   4   2   4 1170.86 818.852   3
   4  -2  -4-50.3433 657.973   7
   4  -2  -4 697.732 529.190   5
   4  -2  -5 8641.14 1668.05   5
  -4  -2   5 8653.13 1364.89   5
  -4   2  -5 8261.95 1537.65   7
  -4  -2   5 6887.44 1427.96   2
   4  -2  -5 9880.94 1182.41   2
   4  -2  -5 8711.92 1681.36   7
   4   2   5 7119.76 1220.19   4
   4  -2  -6 415.422 928.215   5
   4   2   6 2013.06 748.072   4
  -4   2  -6 2967.50 1009.06   7
  -4  -2   6 1482.40 799.320   2
   4   2   6 1424.46 994.676   1
   4  -2  -7 2759.52 1418.26   5
  -4  -2   7 4307.73 1238.31   2
   4   2   7 3634.10 1340.64   1
  -4  -3  -7-548.118 921.731   5
   4   3  -7-1151.51 1141.90   7
  -4   3   7 828.919 615.094   1
   4  -3   7-1215.23 1285.81   4
  -4   3   6 1439.10 883.091   1
   4  -3   6 1834.27 639.576   2
   4  -3   6 2224.27 1364.91   4
   4   3  -6 3142.70 1219.02   7
  -4  -3  -6 2349.18 1151.81   5
   4  -3   5 5904.98 1466.34   4
  -4   3   5 4485.11 345.682   4
  -4   3   5 4391.51 352.022   4
   4   3  -5 5654.23 1455.22   7
  -4   3   5 6470.29 1367.72   1
  -4   3   5 5842.62 868.988   6
  -4  -3  -5 5966.46 1400.27   5
  -4  -3  -4 6287.34 976.855   4
  -4  -3  -4 7064.49 1492.88   5
   4  -3   4 8168.88 1204.83   7
   4   3  -4 6901.30 1294.84   7
   4  -3   4 6025.45 1286.76   5
  -4   3   4 7458.42 974.362   6
   4  -3   4 8641.42 1414.27   6
  -4   3   4 8172.51 1335.73   1
   4  -3   3 48778.5 3418.05   3
   4  -3   3 50184.2 2961.60   6
  -4   3   3 45980.0 2614.57   1
  -4   3   3 47761.2 2774.97   7
   4   3  -3 44774.9 2675.84   7
  -4  -3  -3 44980.8 1206.68   2
   4  -3   3 45311.1 2252.41   7
  -4   3   3 47944.3 2294.81   6
  -4  -3  -3 45190.1 2113.51   4
  -4  -3  -3 43742.6 2826.60   5
  -4  -3  -2 19701.2 1574.71   3
   4   3  -2 23951.3 1736.78   7
  -4   3   2 22706.7 1636.40   7
  -4   3   2 22053.3 1588.96   6
   4  -3   2 25538.1 2000.00   6
  -4  -3  -2 22151.2 1385.76   4
   4  -3   2 18967.9 1825.17   3
   4  -3   2 21724.7 1198.25   7
  -4  -3  -2 22443.8 1763.09   5
  -4  -3  -2 20362.3 1085.47   6
   4  -3   1 57190.2 1969.40   1
  -4  -3  -1 61062.8 2237.31   4
  -4   3   1 61549.2 1983.47   7
  -4  -3  -1 57035.1 2296.62   5
   4  -3   1 60074.1 2492.02   3
   4  -3   0 15269.7 1132.22   1
  -4   3   0 13857.7 1322.16   6
  -4   3   0 15765.4 1044.29   3
  -4  -3   0 17325.0 1305.23   4
  -4  -3   0 14524.5 902.568   5
   4  -3  -1 57677.2 2369.32   1
  -4   3  -1 52521.9 2528.10   3
   4   3   1 59203.3 2199.72   5
   4  -3  -1 57307.0 2478.29   6
  -4   3  -1 58544.1 2765.23   6
   4   3   1 56973.3 2282.18   4
   4  -3  -1 55774.5 1522.77   4
  -4  -3   1 58038.2 2753.37   4
  -4  -3   1 56716.2 1155.00   5
  -4   3  -1 57187.7 1446.57   7
   4  -3  -2 20261.1 1657.22   5
   4   3   2 20344.5 1670.04   5
   4   3   2 19949.4 1332.81   4
  -4   3  -2 18597.0 1219.88   7
   4  -3  -2 20976.3 1512.61   2
  -4  -3   2 20619.2 925.613   5
   4  -3  -2 22632.8 1692.88   1
  -4  -3   3 41897.3 2584.96   7
  -4  -3   3 49091.8 2978.60   2
   4  -3  -3 44313.5 2324.66   2
  -4   3  -3 47360.2 2442.21   7
   4   3   3 43987.1 2771.23   5
   4  -3  -3 48342.0 2843.14   5
  -4  -3   3 47072.0 1895.82   5
   4   3   3 50921.1 2153.14   4
   4   3   4 7957.55 1022.15   4
   4  -3  -4 7727.62 1096.94   2
  -4   3  -4 6547.94 1203.52   7
  -4  -3   4 8613.64 1081.23   5
   4  -3  -4 8134.62 1370.34   5
   4   3   4 7840.78 1399.20   3
  -4  -3   4 7537.14 1415.87   2
  -4  -3   5 6631.46 1093.44   5
  -4  -3   5 3761.11 1009.71   2
   4  -3  -5 5622.71 993.397   2
   4   3   5 5689.95 949.435   4
   4   3   5 5606.90 1264.16   1
   4  -3  -5 4051.43 1253.77   5
  -4   3  -5 5826.07 1380.93   7
  -4  -3   6 1620.29 816.968   2
   4   3   6 1859.07 991.723   1
  -4   3  -6 1333.63 832.156   7
   4  -3  -6 1939.22 1172.56   5
   4   3   6 1017.08 664.118   4
  -4  -3   7 1396.47 695.057   2
   4  -3  -7 1418.84 1091.99   5
   4   3   7 373.286 998.688   1
  -4   4   6 3200.34 1165.84   1
   4  -4   6 2396.19 1291.68   4
  -4  -4  -6 5203.79 1307.36   5
   4   4  -6 2931.75 1107.55   7
   4  -4   6 4392.91 1145.28   2
  -4   4   5 772.245 766.567   3
   4  -4   5 954.301 1240.83   4
   4   4  -5 1675.94 929.313   7
  -4  -4  -5 300.101 854.807   5
  -4   4   5 814.350 363.007   6
  -4   4   5 1121.46 928.533   1
  -4  -4  -4 2257.65 993.534   5
  -4  -4  -4 3168.71 395.193   2
  -4  -4  -4 3329.40 648.908   4
   4  -4   4 1867.24 703.927   7
   4   4  -4 2022.60 922.609   7
  -4   4   4 3205.51 751.939   6
  -4   4   4 2485.97 1028.95   1
  -4  -4  -3 230.756 639.168   5
  -4   4   3 1192.00 679.314   7
   4   4  -3 846.113 619.642   7
   4  -4   3-162.737 623.133   3
   4  -4   3 898.413 799.100   6
  -4  -4  -3 564.383 359.908   4
  -4  -4  -3 828.915 306.021   6
  -4   4   3 1039.73 587.802   6
  -4   4   3 912.327 806.269   1
   4  -4   3 537.854 451.874   7
   4   4  -2 25087.2 1824.12   7
  -4  -4  -2 23930.8 1666.00   3
  -4  -4  -2 22936.7 1497.25   4
   4   4  -2 21925.1 790.630   1
   4  -4   2 22508.3 1372.02   1
  -4   4   2 24202.6 1746.79   7
  -4  -4  -2 21226.0 1407.82   6
   4  -4   2 25644.3 2316.70   6
   4  -4   2 22129.0 2076.35   3
  -4  -4  -2 22267.5 1914.00   5
  -4   4   2 21264.0 1733.05   6
   4  -4   1 21361.1 1416.74   1
  -4   4   1 18846.7 1259.95   7
  -4   4   1 21881.9 1817.80   6
  -4  -4  -1 20847.9 1558.97   5
  -4  -4  -1 19944.9 1459.41   4
   4   4  -1 19427.8 1135.74   1
  -4   4   0 16982.5 1147.61   3
   4  -4   0 14994.1 1277.94   1
  -4  -4   0 15442.5 1093.54   5
  -4  -4   0 16241.8 1471.04   4
  -4   4   0 13803.0 1537.67   6
   4  -4   0 17337.9 1690.15   6
  -4   4  -1 20199.6 1917.96   6
  -4  -4   1 20888.8 985.380   5
   4  -4  -1 21128.7 1774.20   6
   4   4   1 21240.6 1711.03   4
  -4  -4   1 19923.2 1844.35   4
  -4   4  -1 21755.2 1039.56   7
   4  -4  -1 19445.3 1603.57   1
   4   4   1 22075.3 1457.68   5
  -4   4  -2 22696.4 1429.69   7
   4  -4  -2 20973.6 1848.20   5
   4  -4  -2 22059.8 1818.60   1
   4  -4  -2 22593.7 1804.90   6
   4   4   2 19993.5 1514.06   4
   4  -4  -2 23599.4 1712.82   2
   4   4   2 23978.3 1853.04   5
   4   4   3 962.861 481.982   4
   4  -4  -3 428.424 774.289   5
   4  -4  -3 1202.13 540.607   2
  -4  -4   3 958.333 394.786   5
  -4   4  -3 760.258 471.946   7
   4   4   4 3380.24 733.524   4
   4  -4  -4 2316.73 708.201   2
   4  -4  -4 3163.27 1168.14   5
  -4  -4   4 1409.95 1010.87   2
  -4   4  -4 1908.19 853.924   7
   4   4   4 3605.32 1117.23   1
  -4  -4   4 2841.11 674.756   5
  -4  -4   5-44.5970 848.462   5
  -4   4  -5 997.399 639.874   7
   4   4   5 677.392 713.593   1
  -4  -4   5 1411.32 834.510   2
   4  -4  -5 921.764 544.499   2
   4   4   5 1439.70 618.084   4
   4  -4  -5 487.260 849.011   5
   4  -4  -6 2455.91 1300.57   5
  -4  -4   6 3149.10 1120.23   2
  -4   4  -6 4027.33 1028.85   7
   4   4   6 2682.27 1359.49   1
  -4   5   6 1697.13 964.561   1
  -4  -5  -6 3617.44 1211.28   5
   4   5  -6 1102.71 768.236   7
   4  -5   6 1797.46 1306.83   4
  -4   5   5 2666.85 648.303   6
   4   5  -5 3825.11 1225.46   7
  -4  -5  -5 3134.85 1368.05   5
  -4   5   4 5542.51 1409.41   1
  -4  -5  -4 6151.36 1600.36   5
   4   5  -4 5616.02 1392.08   7
   4  -5   4 6660.95 714.711   1
  -4  -5  -4 5137.59 811.004   4
  -4   5   4 5586.29 1176.75   3
  -4   5   4 4613.90 921.883   6
  -4  -5  -4 6574.88 792.924   2
  -4   5   3 15954.6 1383.68   3
   4  -5   3 16363.1 2221.63   3
   4  -5   3 14994.6 1174.08   1
  -4  -5  -3 17978.8 1427.98   4
  -4   5   3 16474.5 1803.49   7
  -4   5   3 15686.9 1908.37   1
  -4   5   3 13807.5 1575.51   6
  -4  -5  -3 14939.0 1221.10   6
   4   5  -3 17110.8 1895.58   7
  -4  -5  -3 14620.8 1911.91   5
   4  -5   2 18725.6 1986.84   3
  -4   5   2 17757.3 1819.78   1
  -4   5   2 17463.4 1617.33   7
   4   5  -2 17699.7 949.774   1
  -4   5   2 16349.5 1753.94   6
   4  -5   2 18504.8 1426.35   1
  -4  -5  -2 19183.0 1639.00   6
  -4  -5  -2 17384.5 1419.80   4
  -4   5   2 16130.1 766.585   3
   4   5  -2 18931.9 1794.08   7
  -4  -5  -2 16695.4 1814.03   5
  -4  -5  -1 2511.85 449.811   3
  -4  -5  -1 2538.94 750.140   5
   4   5  -1 2619.11 544.496   1
   4  -5   1 2552.94 631.450   1
  -4  -5  -1 3234.60 754.364   4
  -4   5   1 2104.75 815.095   6
   4  -5   1 3274.09 1001.12   6
  -4  -5  -1 3700.43 847.329   6
  -4   5   1 2786.57 889.903   1
   4   5   0 4201.66 818.344   1
  -4  -5   0 4530.27 722.432   5
   4  -5   0 6061.39 1176.46   6
  -4   5   0 4339.71 1051.49   6
   4  -5   0 4472.18 841.162   1
  -4  -5   0 5232.68 984.316   4
   4  -5  -1 3206.87 956.610   6
  -4  -5   1 3340.68 567.092   5
   4  -5  -1 2300.78 750.030   5
  -4   5  -1 2868.05 499.621   7
   4   5   1 2001.92 818.802   1
   4  -5  -1 3375.51 775.085   1
  -4  -5   1 3583.31 991.911   4
   4  -5  -2 16283.6 1732.35   6
   4  -5  -2 16377.4 758.062   4
  -4   5  -2 16104.7 1296.51   7
   4   5   2 16689.8 1817.45   1
   4  -5  -2 16817.1 745.927   4
   4  -5  -2 17155.4 1839.98   5
   4   5   2 19855.4 1772.02   5
   4  -5  -3 16568.7 1701.69   2
  -4  -5   3 15481.5 1151.28   5
  -4   5  -3 15090.6 1503.59   7
   4   5   3 15239.1 1484.69   4
   4   5   3 12262.9 1818.86   1
   4  -5  -3 13992.6 1879.52   5
  -4  -5   4 5452.77 854.618   5
  -4   5  -4 5608.43 1189.40   7
   4   5   4 6075.98 1413.25   1
   4  -5  -4 6097.32 1050.55   2
   4   5   4 6433.52 960.883   4
   4  -5  -4 5472.18 1447.82   5
  -4  -5   4 5182.30 1393.35   2
   4  -5  -5 1573.09 914.696   5
  -4   5  -5 2650.98 869.598   7
  -4  -5   5 1067.91 1072.64   2
   4   5   5 2549.52 1236.63   1
   4  -5  -6 1011.89 1068.43   5
  -4  -5   6 2764.07 1420.43   2
  -4   5  -6 1929.86 1028.60   7
   4   5   6 1988.06 1237.10   1
  -4   6   5 1339.14 1110.74   1
  -4  -6  -5 1867.66 1223.49   5
   4   6  -5-50.8386 1219.09   7
  -4  -6  -4 1062.74 867.187   5
  -4   6   4 1181.75 962.074   1
  -4   6   4 816.346 722.390   6
   4   6  -4 365.091 656.687   7
   4  -6   3 3035.77 617.946   1
  -4  -6  -3 2404.92 947.000   5
  -4  -6  -3 3681.67 801.180   4
   4   6  -3 3450.40 1087.22   7
  -4  -6  -3 4523.95 858.204   6
  -4   6   3 3127.45 997.684   6
  -4   6   3 2648.50 1035.76   1
  -4  -6  -2 1009.13 808.949   5
   4  -6   2 1519.43 607.903   3
  -4   6   2 887.613 717.533   1
   4   6  -2 805.633 697.737   7
  -4  -6  -2 688.726 606.304   6
   4  -6   2 987.847 341.909   1
  -4   6   2 1336.38 770.524   6
   4   6  -2 644.744 350.105   1
  -4  -6  -2 485.216 430.799   4
  -4   6   2 706.323 496.049   7
   4   6  -1 24128.2 1655.52   1
   4  -6   1 22063.1 1791.97   1
  -4  -6  -1 25231.5 2289.33   6
  -4  -6  -1 22107.3 1877.59   4
  -4   6   1 22484.5 2326.77   6
  -4   6   1 19880.2 1964.99   1
  -4  -6  -1 19635.7 1853.54   5
   4   6   0 3640.37 894.675   1
  -4  -6   0 3551.57 779.368   5
   4  -6   0 1933.55 700.169   1
  -4  -6   0 3369.83 901.930   4
   4  -6  -1 22171.6 1758.61   4
  -4   6  -1 23088.4 1383.71   7
   4   6   1 20984.4 1988.72   1
   4  -6  -1 21433.8 2097.51   5
  -4  -6   1 21205.2 1452.76   5
   4  -6  -2 587.172 257.120   4
   4  -6  -2 369.675 233.265   4
  -4   6  -2 733.319 477.189   7
   4  -6  -2 454.921 629.816   5
   4   6   2 433.338 610.493   1
   4  -6  -2 284.440 687.214   6
  -4   6  -3 3640.28 841.078   7
   4  -6  -3 3999.34 1151.11   5
  -4  -6   3 2685.06 571.144   5
   4   6   3 3784.75 1155.25   1
   4  -6  -3 4688.77 958.923   6
   4  -6  -4 1510.99 1048.23   5
  -4   6  -4 1594.99 772.131   7
   4   6   4 695.667 905.563   1
   4  -6  -5 2389.24 899.909   5
  -4  -6   5 2722.42 1180.05   2
  -4   6  -5 915.290 907.101   7
   4   6   5 452.337 1246.78   1
  -4  -7  -5 927.384 703.877   5
  -4   7   5 808.264 1159.61   1
   4   7  -5 1898.06 1105.36   7
  -4   7   4 5665.19 1737.38   1
  -4  -7  -4 9016.86 1891.91   5
   4   7  -4 5004.68 1505.32   7
  -4  -7  -3 555.727 942.382   5
   4   7  -3 390.661 770.117   7
  -4   7   3 861.226 834.306   1
  -4   7   2 5531.64 1064.52   7
  -4   7   2 3488.09 1044.36   1
  -4  -7  -2 5141.65 1280.25   5
  -4  -7  -2 4985.49 893.691   4
   4  -7   2 4989.42 869.909   1
  -4  -7  -2 5400.48 1237.23   6
   4   7  -2 7256.02 1345.47   7
   4   7  -1 5131.02 979.895   1
  -4  -7  -1 4494.04 1046.21   5
  -4  -7  -1 6356.81 1123.49   4
  -4   7   1 5276.30 1153.07   1
  -4  -7   0 1165.12 333.622   3
  -4  -7   0 1331.09 663.966   5
   4   7   0 1717.33 740.619   1
  -4  -7   1 4594.11 828.129   5
   4  -7  -1 4232.63 1149.16   5
  -4   7  -1 5602.62 816.892   7
   4   7   1 5514.60 1270.23   1
   4  -7  -1 6349.25 1109.24   4
   4  -7  -2 5653.00 1340.54   5
  -4  -7   2 5491.18 784.326   5
   4   7   2 5280.83 1376.83   1
  -4   7  -2 4856.66 872.801   7
   4  -7  -2 3832.96 624.280   4
   4   7   3 614.305 847.244   1
   4  -7  -3 945.733 525.384   5
  -4   7  -3 855.463 583.687   7
   4   7   4 4185.54 1379.81   1
   4  -7  -4 7812.23 1805.13   5
  -4   7  -4 5179.88 1177.48   7
   4  -7  -5 1832.20 1101.33   5
   4   7   5 1229.30 955.688   1
  -4  -7   5-1491.17 997.708   2
  -4  -8  -4 179.774 1181.09   5
   4   8  -4-225.944 1095.77   7
  -4   8   4-111.113 891.438   1
   4   8  -3 3078.13 1132.70   7
  -4   8   3 786.928 1024.07   1
  -4  -8  -3 852.154 1097.78   5
  -4  -8  -2 1469.85 1041.24   5
   4   8  -2 3019.30 1045.76   7
  -4   8   2 2818.32 1123.09   1
   4   8  -1 9198.16 1594.31   7
   4   8  -1 9540.11 1350.49   1
  -4   8   1 9982.33 1655.75   1
  -4  -8  -1 11550.4 1652.58   5
  -4  -8   0 7430.49 1269.32   5
   4  -8   0 5762.74 1230.24   5
   4   8   0 9303.55 1461.64   1
   4  -8  -1 9251.00 1701.91   5
   4   8   1 10213.6 1658.87   1
  -4   8  -1 11356.2 1252.28   7
  -4  -8   1 10121.2 1275.22   5
   4  -8  -2 4551.02 1165.75   5
   4   8   2 2217.76 1191.36   1
   4   8   3 565.776 1118.60   1
   4  -8  -3 2828.39 1208.03   5
   4  -8  -4 1144.68 984.170   5
   4   8   4 1378.20 1082.54   1
  -4  -9  -2 80.0484 976.277   5
  -4   9   2 1387.56 930.456   1
   4   9  -2 21.3601 1005.32   7
   4  -9   1 406.768 423.443   5
   4   9  -1 732.133 702.314   7
  -4  -9   0 705.356 428.132   5
   4  -9   0 798.491 967.204   5
   4   9   0 1142.91 881.077   1
   4  -9  -1 1076.60 730.785   5
   4   9   1 516.289 902.396   1
   4  -9  -2 2258.22 937.565   5
   4   9   2 994.950 781.753   1
  -5   0   0-33.4739 249.397   4
  -5   0   0-112.078 250.244   2
  -5   0   1 59306.2 1745.66   4
  -5   0  -1 55496.1 1984.09   4
   5   0  -1 57929.7 1788.17   7
   5   0   1 57015.5 1458.96   2
  -5   0  -1 54151.1 1700.25   6
  -5   0   1 53126.3 1959.24   2
   5   0  -1 58345.9 1808.21   4
   5   0   2 56145.2 2769.33   3
   5   0  -2 47365.4 2186.84   7
   5   0  -2 46363.3 1595.20   1
   5   0   2 49460.6 2014.37   7
  -5   0  -2 49981.3 1608.90   6
  -5   0  -2 52241.0 2291.89   4
  -5   0   2 52411.9 2233.11   2
   5   0  -2 50690.9 2228.60   2
   5   0   2 52531.0 1676.93   6
   5   0  -2 46599.1 1775.18   5
  -5   0   2 53676.5 1955.83   4
   5   0  -3 16032.5 1373.20   5
   5   0   3 15229.1 1447.12   4
  -5   0   3 16366.9 1075.97   1
   5   0  -3 18234.5 1552.68   2
  -5   0   3 17102.0 1414.98   4
   5   0   3 15459.9 989.078   6
   5   0  -3 15743.6 1591.11   7
   5   0   3 15862.9 1473.20   7
   5   0   3 15469.5 1852.76   3
  -5   0  -3 16650.9 1633.09   5
   5   0  -3 14020.1 1041.41   1
  -5   0   3 13267.5 1333.73   2
  -5   0   3 14604.2 1237.70   5
   5   0   4 5452.99 1325.75   3
  -5   0   4 7998.08 1181.91   5
   5   0   4 7545.09 1364.56   5
  -5   0   4 8168.04 940.541   1
  -5   0   4 7531.25 1303.27   7
   5   0   4 7815.24 1261.57   7
   5   0  -4 7805.38 1424.99   7
   5   0   4 9239.09 846.601   6
   5   0   4 7765.12 676.762   2
   5   0  -4 9239.21 1288.10   5
   5   0   4 7057.90 1178.13   4
  -5   0   4 7096.56 1129.22   2
  -5   0  -4 6855.84 1251.37   5
   5   0  -4 8505.41 1220.35   2
   5   0  -5 16194.1 1973.09   5
  -5   0   5 16160.1 1458.47   1
   5   0   5 15476.5 995.865   2
   5   0  -5 13270.8 2272.86   7
   5   0   5 17435.0 1196.35   6
   5   0   5 15950.2 1911.03   4
  -5   0   5 14188.1 1754.25   2
   5   0  -6-925.386 711.547   5
  -5   0   6-917.892 620.883   2
   5   0  -6-1824.69 1193.46   7
   5   0   6-69.1165 863.018   4
  -5   0   6 489.738 423.854   1
   5   0  -7-90.3310 1211.11   5
   5   0  -7 401.311 1017.80   7
   5   0   7-1491.06 982.525   4
  -5   0   7 1008.76 853.104   4
   5   0   7 42.4515 823.720   1
  -5   0   7 543.717 347.683   2
   5  -1   7 1566.37 1016.66   4
  -5   1   7 3187.75 912.503   1
   5   1  -7 2305.20 911.125   7
  -5  -1  -7 3846.05 1478.02   5
   5   1  -7 4047.17 1268.46   5
   5  -1   6 1070.85 841.025   4
   5   1  -6 2058.57 882.808   5
   5  -1   6 90.8838 239.819   2
  -5   1   6 2492.71 879.213   1
  -5   1   6 1678.98 706.423   4
  -5   1   6 2097.54 780.614   2
   5   1  -6 1519.71 1132.30   7
  -5   1   6 985.532 445.133   4
  -5  -1  -6 2135.39 1247.28   5
   5   1  -5 529.046 702.465   5
  -5   1   5 775.709 644.541   1
   5  -1   5 1008.45 510.872   2
   5  -1   5 216.459 1028.03   4
   5  -1   5 1567.56 658.198   6
  -5   1   5 1207.52 746.768   2
   5   1  -5 441.442 818.374   7
  -5   1   5 574.483 532.976   4
  -5  -1  -5 1531.97 1048.60   5
  -5  -1  -4 7483.82 1430.18   5
   5   1  -4 5935.13 973.004   5
   5  -1   4 7861.07 1401.81   5
  -5   1   4 6708.26 1162.86   5
   5  -1   4 6835.30 1016.79   6
  -5   1   4 7541.72 964.279   4
   5  -1   4 8118.50 1361.85   4
  -5   1   4 7030.26 1010.77   1
  -5   1   4 6631.60 1257.00   7
  -5   1   4 6731.34 1088.51   2
   5  -1   4 6987.75 1160.08   7
   5   1  -4 6174.01 1369.68   7
   5   1  -3 5243.25 760.828   5
   5  -1   3 6251.47 850.213   6
   5  -1   3 7182.10 1335.16   3
  -5  -1  -3 6573.05 999.179   4
  -5   1   3 5975.03 913.117   5
  -5  -1  -3 6196.80 1371.21   3
  -5   1   3 6125.80 800.604   1
  -5  -1  -3 6369.61 1105.48   5
  -5   1   3 5620.57 655.206   4
   5  -1   3 4852.87 1006.68   4
   5   1  -3 5994.97 1104.88   7
   5  -1   3 5248.69 897.234   7
  -5   1   3 6322.96 1023.34   7
  -5   1   3 4772.83 864.170   2
   5  -1   2 43589.6 2553.69   3
  -5  -1  -2 44882.2 2194.20   5
  -5   1   2 42004.4 1963.51   7
  -5  -1  -2 42304.8 1967.38   4
  -5   1   2 44881.7 1385.23   4
   5  -1   2 40664.2 1851.22   6
   5  -1   2 43754.8 1859.77   7
  -5   1   2 40740.2 1912.30   2
  -5  -1  -2 43471.5 1148.70   6
  -5   1   2 40897.3 1721.40   1
   5   1  -2 42450.2 2091.61   7
   5   1  -2 42086.5 1206.82   1
   5   1  -2 44916.3 1531.23   5
  -5  -1  -2 46090.2 2579.10   3
   5  -1   1 267424. 4427.84   6
  -5   1   1 272849. 3150.10   4
  -5   1   1 267174. 3487.35   7
  -5  -1  -1 274134. 3056.82   2
  -5  -1  -1 254403. 4151.73   4
  -5   1   1 270845. 4248.29   2
   5  -1   1 269972. 3060.41   7
   5   1  -1 287616. 4324.23   7
  -5  -1  -1 267867. 4198.81   5
   5   1   0 764951. 4953.04   5
  -5   1   0 768888. 7390.80   6
  -5  -1   0 705599. 6622.55   4
   5  -1   0 841635. 3928.29   7
  -5  -1   0 769569. 6702.99   2
  -5   1   0 773285. 6334.14   4
   5  -1   0 783806. 6274.54   4
  -5   1  -1 273105. 4709.07   4
  -5  -1   1 273939. 4445.79   4
   5   1   1 276952. 3171.02   2
   5  -1  -1 260206. 3726.50   7
  -5  -1   1 249369. 4560.34   2
   5  -1  -1 272093. 3170.40   4
  -5   1  -1 279793. 4503.80   6
   5  -1  -1 278011. 3990.86   1
   5   1   1 256265. 4169.51   5
  -5   1  -2 42364.2 1888.43   6
   5   1   2 40832.5 1894.30   4
   5  -1  -2 45294.1 1853.16   1
   5  -1  -2 43643.6 2092.86   7
  -5  -1   2 41768.3 2152.39   2
   5  -1  -2 38285.2 1921.80   2
  -5  -1   2 41808.7 1351.34   5
   5  -1  -2 37866.4 1820.27   5
   5   1   3 6345.11 927.504   4
  -5  -1   3 6015.03 995.024   2
   5  -1  -3 6836.81 965.859   2
   5  -1  -3 5044.48 1058.88   7
   5   1   3 6918.51 1172.13   3
  -5  -1   3 6537.61 802.511   5
   5  -1  -3 4552.59 745.727   1
   5  -1  -3 5220.21 893.301   5
   5  -1  -4 4739.67 1049.40   5
  -5  -1   4 6484.77 1023.95   5
   5   1   4 5680.87 1102.80   7
   5  -1  -4 6703.87 1428.95   7
   5  -1  -4 7616.06 1131.30   2
   5   1   4 8055.10 1583.48   3
  -5  -1   4 7004.28 1193.28   2
   5   1   4 7021.79 1139.57   4
   5  -1  -5 954.377 858.969   5
  -5  -1   5 1485.36 796.341   5
  -5  -1   5 1665.72 755.249   2
   5  -1  -5 1125.73 587.053   2
  -5  -1   5 1006.64 408.799   1
   5  -1  -5 238.522 726.339   7
   5   1   5 849.552 814.870   4
   5  -1  -6 457.344 936.919   5
  -5  -1   6-731.556 665.927   2
   5   1   6 997.046 858.315   4
   5  -1  -6 324.796 706.293   7
  -5  -1   7 1564.10 784.239   2
   5  -1  -7 2764.96 1302.23   5
   5   1   7 4307.43 1319.63   4
   5   1   7 1868.84 1174.26   1
   5  -1  -7 4367.22 1402.71   7
   5  -2   7 1802.94 1281.83   4
  -5   2   7 1832.45 1036.75   1
   5   2  -7 1122.04 1278.20   7
  -5  -2  -7 2288.65 1424.96   5
  -5   2   6 2804.44 740.368   4
   5   2  -6 3847.83 1579.30   7
  -5  -2  -6 3969.45 1413.44   5
   5  -2   6 2164.22 1317.20   4
  -5   2   6 2432.74 973.986   1
   5  -2   6 1974.51 804.722   2
  -5   2   6 2421.08 737.026   2
  -5   2   6 3838.23 801.977   6
  -5  -2  -5 11983.3 1923.14   5
   5  -2   5 14409.6 1725.11   6
  -5   2   5 14446.2 1550.09   2
   5  -2   5 12923.3 2025.38   4
  -5   2   5 12538.1 1411.23   6
   5   2  -5 14762.7 1639.61   5
  -5   2   5 14507.2 1206.49   4
  -5   2   5 16231.2 1235.50   4
  -5   2   5 13215.8 1668.13   1
   5   2  -5 15659.5 2137.82   7
  -5  -2  -4 8935.42 1474.19   5
   5  -2   4 8432.19 1457.05   5
  -5   2   4 9576.15 1135.72   2
  -5   2   4 8687.46 763.821   4
  -5   2   4 8562.08 1255.35   1
   5  -2   4 10863.2 1373.78   6
   5  -2   4 10085.0 1594.16   4
  -5   2   4 9103.48 1127.39   6
   5  -2   4 9337.64 1374.46   7
  -5   2   4 8332.59 723.481   4
   5   2  -4 8396.43 1095.21   5
   5   2  -4 8334.48 1460.81   7
  -5   2   3 33284.1 1013.08   4
  -5  -2  -3 37894.8 2833.57   3
   5  -2   3 32642.0 1973.33   7
  -5   2   3 32063.3 1941.15   6
  -5   2   3 32380.1 2019.93   1
  -5   2   3 34615.1 1926.97   2
   5   2  -3 34963.7 2401.87   7
   5  -2   3 33681.4 2308.63   5
  -5   2   3 34858.9 2270.30   7
   5  -2   3 34404.8 2814.54   3
   5   2  -3 34974.7 1605.03   5
  -5  -2  -3 33646.2 2385.91   5
   5  -2   3 33856.9 2173.23   6
  -5  -2  -3 34430.2 2016.09   4
   5  -2   2 24795.3 2049.78   3
  -5  -2  -2 26092.1 1925.78   3
  -5   2   2 22807.7 1569.49   6
  -5   2   2 22832.2 1477.87   2
  -5   2   2 22678.0 656.740   4
  -5  -2  -2 25702.1 1540.88   4
   5   2  -2 23696.1 1623.05   7
   5  -2   2 24370.4 1341.99   7
   5   2  -2 22537.6 646.479   1
   5  -2   2 24720.7 1736.44   6
  -5  -2  -2 23078.3 1723.09   5
  -5  -2  -2 24088.6 808.752   2
  -5   2   2 24131.8 1555.98   7
  -5  -2  -1 137303. 3211.76   4
   5  -2   1 132513. 1808.36   7
  -5   2   1 132619. 3515.47   6
  -5   2   1 134719. 2242.31   4
  -5  -2  -1 137298. 2733.48   2
  -5  -2  -1 131756. 3165.74   5
  -5   2   1 129370. 2549.20   7
  -5  -2   0 177217. 3701.55   4
   5  -2   0 173739. 3282.51   4
  -5  -2   0 171073. 3653.30   2
  -5   2   0 170101. 4007.46   6
  -5  -2   0 171401. 2467.35   5
   5   2   0 172226. 2449.32   5
   5  -2  -1 136296. 2080.29   4
   5  -2  -1 137334. 3268.99   1
  -5  -2   1 136224. 3729.51   2
   5  -2  -1 134595. 2682.14   7
  -5   2  -1 135900. 3710.31   6
  -5  -2   1 138987. 3714.92   4
   5   2   1 134845. 3203.57   4
   5   2   1 139301. 3249.74   5
  -5   2  -1 132748. 3855.30   3
   5  -2  -2 23633.2 1557.22   7
  -5   2  -2 22562.1 2130.66   3
   5   2   2 24278.7 1468.59   4
  -5  -2   2 25880.8 1931.61   4
  -5  -2   2 24682.0 1823.40   2
  -5   2  -2 24265.4 1710.60   6
   5  -2  -2 22772.3 1562.39   1
  -5   2  -2 21416.1 1270.64   7
   5   2   2 24745.1 1775.77   5
   5  -2  -2 22498.5 1581.37   5
   5  -2  -2 23395.8 1554.37   2
  -5  -2   2 23685.8 860.379   5
   5   2   3 33209.7 1851.70   4
   5  -2  -3 37480.5 2384.98   7
   5  -2  -3 38535.9 2187.40   1
  -5  -2   3 32511.6 2300.18   2
  -5  -2   3 34423.8 1580.03   5
   5  -2  -3 33504.4 2060.65   2
  -5   2  -3 31499.4 1982.10   7
   5  -2  -3 29346.4 2136.38   5
   5   2   3 35826.6 2546.63   3
   5   2   4 8651.62 1548.91   3
  -5  -2   4 7752.97 1308.44   2
  -5  -2   4 8564.38 1055.37   5
   5  -2  -4 9211.28 1480.80   5
   5   2   4 7374.57 1096.44   4
   5  -2  -4 8393.66 1442.57   7
   5  -2  -4 9603.80 1278.37   2
  -5   2  -4 9104.54 1384.05   7
   5  -2  -5 12702.5 1949.31   5
   5   2   5 14374.2 1680.66   4
  -5  -2   5 11679.4 1701.03   2
   5  -2  -5 14637.2 1670.75   2
   5  -2  -5 12820.8 1939.66   7
  -5   2  -5 12872.8 1860.17   7
  -5  -2   5 15423.1 1739.37   5
   5  -2  -6 4393.61 1463.81   5
   5   2   6 3585.73 1111.55   4
  -5  -2   6 2111.34 878.633   2
   5  -2  -6 3366.50 1387.55   7
   5  -2  -7 1499.22 1418.75   5
  -5  -2   7 2988.74 1012.46   2
   5   2   7 1903.02 1043.23   4
   5   2   7 873.493 1116.40   1
  -5  -3  -7 3430.36 1869.77   5
  -5   3   7 959.597 985.467   1
   5   3  -7 2580.62 1472.86   7
   5  -3   7 4544.19 1610.43   4
  -5  -3  -6 4882.99 1584.32   5
  -5   3   6 3573.52 1315.68   1
   5  -3   6 5617.16 1196.49   2
   5   3  -6 5844.27 1465.75   7
   5  -3   6 4237.36 1511.41   4
  -5  -3  -5 6878.38 1599.19   5
  -5   3   5 6381.85 1011.49   6
  -5   3   5 6495.47 1364.33   1
   5  -3   5 4962.06 1543.91   4
   5   3  -5 4805.44 1356.07   7
  -5   3   4 4470.83 1110.07   1
   5  -3   4 5691.62 1079.40   7
  -5  -3  -4 4669.49 1129.81   5
   5  -3   4 6513.00 1407.72   4
  -5  -3  -4 6246.52 1003.86   4
   5   3  -4 5086.21 1125.53   7
  -5   3   4 5289.48 952.729   6
   5  -3   4 6698.92 1269.28   6
  -5   3   3 701.877 570.227   7
  -5  -3  -3 641.360 166.032   2
   5  -3   3 1824.56 773.827   3
  -5   3   3 1152.09 665.787   1
  -5  -3  -3 766.569 779.966   3
   5   3  -3 287.643 511.889   7
  -5  -3  -3 941.276 391.338   4
   5  -3   3 550.744 426.964   7
  -5  -3  -3 1792.07 746.205   5
   5  -3   3 668.947 610.028   6
  -5   3   3 1100.32 447.916   6
  -5  -3  -3 861.680 174.849   2
   5  -3   2 13836.3 1590.41   3
  -5  -3  -2 12526.5 1356.87   3
   5   3  -2 11117.6 457.181   1
   5  -3   2 11430.9 895.401   7
  -5  -3  -2 11478.6 1102.39   4
  -5   3   2 10614.9 1120.76   7
  -5   3   2 11620.7 1240.08   6
   5  -3   2 11696.9 1415.23   6
   5   3  -2 11917.8 1287.61   7
  -5  -3  -2 10169.8 1249.64   5
   5  -3   1 10601.4 1199.76   4
  -5   3   1 9872.91 1162.62   6
  -5  -3  -1 8772.76 963.702   4
  -5   3   1 9057.97 793.697   7
  -5  -3  -1 10724.7 1060.85   5
   5   3   0 8541.54 1091.60   4
  -5   3   0 7995.04 426.425   7
   5  -3   0 7587.43 851.793   1
   5   3   0 7686.79 604.120   5
  -5   3   0 7769.29 1069.52   6
   5  -3   0 6749.03 788.223   4
  -5  -3   0 7296.56 886.264   4
  -5  -3   0 8528.70 720.374   5
  -5   3   0 7355.19 822.564   3
  -5   3  -1 10595.4 1230.03   3
   5  -3  -1 8944.90 1003.26   1
  -5   3  -1 8543.13 1186.28   6
   5  -3  -1 9171.94 659.149   4
   5   3   1 9295.35 1044.59   4
  -5  -3   1 9020.90 1145.93   4
   5  -3  -1 9570.62 1144.09   6
  -5   3  -1 8722.13 527.446   7
   5   3   1 9870.87 965.793   5
   5  -3  -2 11924.1 1276.96   1
   5   3   2 11572.1 1112.80   4
  -5  -3   2 12509.5 1543.66   4
   5  -3  -2 11285.7 1185.02   2
  -5   3  -2 10912.1 1422.67   6
  -5   3  -2 7148.11 1341.10   3
  -5  -3   2 11283.3 1380.12   2
   5   3   2 10808.9 1234.09   5
  -5  -3   2 10732.4 539.940   5
   5  -3  -2 12098.0 1323.09   5
  -5   3  -2 10415.7 916.596   7
  -5  -3   3 816.956 388.895   5
   5   3   3 470.299 596.155   5
   5  -3  -3 1477.94 837.639   5
   5  -3  -3 326.060 537.788   2
   5  -3  -3 1078.56 598.779   1
  -5  -3   3 594.916 622.756   2
   5   3   3 676.261 517.641   4
  -5   3  -3 514.573 488.275   7
   5  -3  -4 5911.60 1251.61   5
   5  -3  -4 6106.52 1048.21   2
  -5  -3   4 6357.81 1215.10   2
  -5  -3   4 5316.54 878.122   5
  -5   3  -4 5335.92 1074.86   7
   5   3   4 6198.96 981.907   4
   5  -3  -5 6713.42 1464.32   5
  -5  -3   5 6053.42 1102.39   5
   5   3   5 5598.52 1054.66   4
   5  -3  -5 6404.09 1243.83   2
  -5  -3   5 5331.81 1331.03   2
  -5   3  -5 6024.60 1328.06   7
   5  -3  -6 5621.91 1609.01   5
  -5   3  -6 4199.20 1263.25   7
  -5  -3   6 4963.89 1245.90   2
   5   3   6 3893.88 996.957   4
   5   3   6 3321.91 1325.23   1
   5  -3  -7 1958.03 1317.62   5
  -5  -3   7 496.355 902.088   2
   5   3   7 3555.33 1335.45   1
  -5  -4  -6 185.958 909.043   5
   5   4  -6 489.022 665.205   7
  -5   4   6 1913.94 1136.88   1
   5  -4   6 623.940 1178.89   4
  -5   4   5 526.650 562.571   3
   5   4  -5 1712.20 1081.61   7
   5  -4   5 2319.85 1267.10   4
  -5  -4  -5 3061.91 1234.94   5
  -5   4   5 1691.66 612.412   6
  -5   4   5 3956.88 1098.33   1
   5  -4   4 9517.39 1924.30   4
  -5  -4  -4 10027.2 1237.48   4
  -5   4   4 10662.4 1575.53   1
  -5  -4  -4 9059.33 1748.06   5
   5  -4   4 9934.05 1343.55   7
  -5   4   4 10460.2 1298.67   6
   5   4  -4 10490.1 1703.30   7
   5  -4   3 27690.3 2712.91   3
  -5   4   3 29306.6 2346.28   1
  -5  -4  -3 26535.7 1796.05   4
   5  -4   3 28843.7 1762.44   7
  -5  -4  -3 27202.4 1215.54   6
  -5   4   3 27069.1 2039.45   6
   5   4  -3 26233.5 2267.56   7
  -5   4   3 29081.1 2293.66   7
  -5  -4  -3 21480.4 2202.65   5
   5  -4   2 15412.8 1778.74   3
  -5  -4  -2 15044.4 1380.30   3
  -5  -4  -2 15217.3 1606.43   5
   5  -4   2 15080.1 1202.78   1
   5  -4   2 17357.1 1882.21   6
  -5  -4  -2 16578.2 1271.73   6
  -5   4   2 14460.9 1540.07   6
   5   4  -2 16258.3 733.890   1
   5   4  -2 15412.2 1557.70   7
  -5   4   2 18420.3 1534.19   7
  -5  -4  -2 15626.5 1324.97   4
   5  -4   1 13630.8 1193.87   1
  -5  -4  -1 15274.3 1340.90   4
  -5   4   1 15396.1 1586.24   6
  -5   4   1 13537.8 1053.72   7
   5   4  -1 12358.5 932.540   1
  -5  -4  -1 13886.4 1296.10   5
   5  -4   0 15563.1 1362.33   1
  -5  -4   0 12758.8 996.206   5
  -5   4   0 12974.1 1537.66   6
  -5   4   0 15886.0 1201.49   3
  -5  -4   0 15456.1 1461.09   4
   5  -4  -1 12873.4 1356.56   1
  -5  -4   1 15256.6 1624.08   4
   5   4   1 15288.8 1518.95   4
   5  -4  -1 14651.3 1005.16   4
  -5   4  -1 15950.5 815.671   7
  -5   4  -1 14458.7 1703.06   6
  -5   4  -1 16125.0 1600.28   3
  -5  -4   1 14747.7 789.286   5
   5  -4  -1 16104.3 1589.23   6
   5   4   1 14486.4 1237.96   5
   5  -4  -2 16022.7 1492.41   2
  -5   4  -2 16601.6 1162.12   7
  -5  -4   2 15374.9 743.746   5
  -5  -4   2 12835.7 1918.34   4
   5   4   2 14752.2 1397.22   4
   5  -4  -2 15269.7 1530.80   6
   5  -4  -2 18535.0 1706.02   1
   5   4   2 16655.5 1612.67   5
   5  -4  -2 17476.8 1719.97   5
   5   4   3 25879.8 1755.00   4
  -5  -4   3 26204.9 1309.26   5
   5  -4  -3 27407.8 2097.30   2
  -5  -4   3 23918.7 2350.64   2
  -5   4  -3 25634.0 1841.40   7
   5  -4  -3 24080.1 2251.86   5
   5  -4  -4 12867.1 1891.34   5
  -5  -4   4 10532.7 1788.27   2
   5  -4  -4 10692.4 1435.52   2
   5   4   4 13172.8 1325.99   4
  -5   4  -4 10179.4 1452.08   7
  -5  -4   4 8910.64 1011.36   5
   5  -4  -5 2982.59 1159.08   5
   5   4   5 2700.48 772.557   4
   5  -4  -5 3540.65 1011.82   2
  -5  -4   5 1691.54 1009.78   2
  -5   4  -5 2305.76 861.341   7
   5   4   5 2355.49 1191.63   1
   5  -4  -6 1962.57 1210.60   5
  -5  -4   6 1339.47 1005.80   2
  -5   4  -6 1204.68 999.886   7
   5   4   6 1688.78 1024.35   1
  -5  -5  -6 714.661 715.343   5
   5  -5   6 2797.45 1373.66   4
  -5   5   6 508.553 1297.38   1
   5   5  -6 1518.14 1182.50   7
  -5  -5  -5 1598.76 917.943   5
  -5   5   5 1987.62 1115.74   1
   5   5  -5 577.687 1051.59   7
  -5   5   5 1899.26 527.577   6
  -5  -5  -4 631.702 602.887   4
   5  -5   4 1777.78 840.101   7
  -5   5   4 1686.30 956.752   1
   5  -5   4 1353.74 482.316   1
  -5  -5  -4 1046.03 906.077   5
  -5   5   4 1339.51 797.852   3
  -5   5   4 826.522 547.857   6
   5   5  -4 1070.83 729.919   7
  -5  -5  -4 1499.47 399.728   2
  -5  -5  -3 1549.36 883.921   5
  -5   5   3 1519.08 733.876   7
   5  -5   3 2434.00 895.494   3
  -5   5   3-1115.29 656.636   3
   5  -5   3 1943.37 543.970   1
  -5  -5  -3 2168.45 575.459   6
  -5   5   3 1358.72 1000.28   1
  -5   5   3 1607.57 711.162   6
   5   5  -3 615.244 696.779   7
  -5  -5  -3 1720.67 592.499   4
   5  -5   2 17864.6 1932.49   3
  -5  -5  -2 19116.2 1504.24   3
  -5  -5  -2 18872.6 1663.36   6
  -5  -5  -2 16005.3 1817.81   5
   5   5  -2 18540.0 990.156   1
   5  -5   2 16247.6 1390.09   1
  -5  -5  -2 19130.2 1589.96   4
  -5   5   2 16152.0 1817.56   1
   5   5  -2 16833.5 1747.83   7
  -5   5   2 18997.8 1689.29   7
  -5   5   2 18040.0 1891.09   6
  -5   5   1 68066.3 1608.66   3
   5  -5   1 69907.5 2915.37   1
  -5   5   1 73483.9 3228.64   1
  -5  -5  -1 73195.2 3451.68   6
  -5   5   1 70953.2 3627.02   6
  -5   5   1 69312.5 2545.64   7
  -5  -5  -1 69130.7 3082.07   4
  -5  -5  -1 72754.3 3148.54   5
   5   5  -1 69533.3 2459.64   1
   5  -5   0 11709.7 1363.46   1
  -5  -5   0 14800.9 1587.73   4
   5  -5   0 13953.6 1714.66   6
  -5   5   0 8880.12 1487.58   6
   5   5   0 10611.6 1203.83   1
  -5  -5   0 11346.4 1110.58   5
   5  -5  -1 71759.8 2556.52   4
   5  -5  -1 73702.9 3668.77   6
  -5  -5   1 75206.1 3827.99   4
  -5   5  -1 70391.3 1922.67   7
  -5   5  -1 75009.2 4007.12   6
   5   5   1 72142.5 3216.25   1
  -5  -5   1 67392.2 2076.46   5
   5  -5  -1 70633.0 3317.19   1
   5   5   2 18720.1 1737.19   5
   5  -5  -2 16465.1 691.278   4
   5  -5  -2 16352.8 688.353   4
   5   5   2 17586.8 1720.58   4
   5  -5  -2 17632.2 1835.88   6
   5   5   2 19903.4 1948.27   1
   5  -5  -2 15787.8 1699.48   2
   5  -5  -2 18914.5 1965.53   5
  -5   5  -2 17570.3 1260.78   7
  -5  -5   2 18177.2 917.097   5
   5  -5  -3 1691.17 888.494   5
  -5   5  -3 1682.00 640.448   7
  -5  -5   3 2014.71 429.083   5
   5  -5  -3 1003.29 711.286   2
   5   5   3 679.719 667.116   1
   5   5   3 1756.07 718.105   4
  -5  -5   4 2040.89 516.521   5
   5  -5  -4 2316.99 1091.84   5
   5   5   4 1223.50 950.757   1
  -5  -5   4 1740.38 855.971   2
  -5   5  -4 694.351 586.883   7
   5   5   4 1866.03 668.647   4
   5  -5  -4 136.139 891.152   2
   5  -5  -5 1795.94 996.348   5
  -5  -5   5 112.377 685.944   2
   5   5   5-523.374 785.039   1
  -5   5  -5 536.565 439.323   7
   5   5   5 719.899 599.975   4
   5  -5  -6 1466.11 1194.91   5
  -5   5  -6-807.211 865.413   7
  -5  -5   6 3496.08 1075.08   2
   5   5   6 1008.65 1334.97   1
   5  -6   5 1821.51 1252.85   4
   5   6  -5 351.503 1037.53   7
  -5  -6  -5 399.881 1119.52   5
  -5   6   5 1814.53 980.995   1
  -5  -6  -4 6088.44 1471.18   5
   5   6  -4 5169.76 1375.52   7
  -5   6   4 5921.05 1385.97   1
  -5   6   4 4760.92 966.250   6
  -5   6   3 2275.99 396.580   3
  -5   6   3 2455.18 1049.46   1
   5   6  -3 2104.75 927.688   7
   5  -6   3 3310.49 591.789   1
  -5  -6  -3 3715.09 831.582   4
  -5   6   3 4179.71 1050.50   6
  -5  -6  -3 2436.17 767.540   6
  -5  -6  -3 4266.77 1116.24   5
  -5   6   2 8907.84 1414.02   1
   5  -6   2 7956.01 1080.84   1
  -5  -6  -2 9090.68 1205.35   4
   5   6  -2 9128.14 852.857   1
  -5   6   2 7312.02 1188.70   7
   5   6  -2 7375.19 1290.60   7
  -5  -6  -2 8718.04 1270.19   6
  -5  -6  -2 7663.70 1400.47   5
  -5   6   2 7098.80 1362.02   6
  -5  -6  -1 671.159 250.102   3
  -5  -6  -1-47.4235 604.878   5
  -5   6   1 523.250 633.770   6
   5   6  -1 193.549 488.409   1
  -5   6   1 615.703 727.284   1
   5  -6   1 138.539 431.697   1
  -5  -6  -1-794.031 620.926   6
  -5  -6  -1 725.337 582.117   4
  -5   6   1 423.240 425.743   7
  -5   6   0 9550.70 1627.26   6
  -5  -6   0 6769.39 1299.84   4
   5   6   0 6196.17 1085.64   1
  -5  -6   0 7802.82 1006.64   5
  -5  -6   1 130.460 251.421   5
   5  -6  -1 1271.74 833.958   5
   5  -6  -1 667.868 518.533   4
  -5   6  -1 312.464 248.542   7
   5   6   1 1215.39 705.940   1
   5  -6  -2 7804.53 1438.79   5
   5  -6  -2 8006.39 666.716   4
  -5   6  -2 7876.81 999.929   7
   5   6   2 7726.93 1474.79   1
   5  -6  -2 8677.05 688.038   4
  -5  -6   2 8138.70 762.426   5
   5  -6  -3 2830.04 1035.86   5
  -5  -6   3 3648.85 577.182   5
  -5   6  -3 3521.37 711.047   7
   5   6   3 2736.39 1081.89   1
   5  -6  -4 4195.47 1427.76   5
  -5   6  -4 3582.89 1015.01   7
  -5  -6   4 4041.68 1344.47   2
   5   6   4 2904.59 1331.68   1
   5   6   4 3881.81 1019.17   4
  -5  -6   5 591.180 821.673   2
  -5   6  -5 1245.97 715.041   7
   5  -6  -5 911.104 1164.59   5
   5   6   5 1708.87 1057.09   1
  -5  -7  -5 1981.84 1345.91   5
   5   7  -5 5272.43 1304.39   7
   5  -7   5 2386.11 1471.11   4
  -5   7   5 1021.11 1116.23   1
  -5   7   4 364.712 822.281   1
  -5  -7  -4 1958.68 1133.02   5
   5   7  -4 1092.72 928.178   7
  -5  -7  -3 1883.26 1005.45   5
   5   7  -3 866.995 711.129   7
  -5   7   3 2333.90 1139.71   1
  -5  -7  -2-278.163 528.865   5
  -5   7   2-1085.17 719.204   1
   5  -7   2 102.115 266.241   1
   5   7  -2 75.4463 389.180   1
   5   7  -2 591.045 692.225   7
  -5   7   2 2262.24 679.593   7
  -5  -7  -2-386.511 763.664   6
  -5  -7  -2 1341.82 477.742   4
  -5  -7  -1 1613.72 796.493   5
  -5   7   1 2086.63 879.306   1
  -5   7   1 2191.22 615.117   7
   5   7  -1 1832.15 696.358   1
  -5  -7   0 3583.24 820.777   5
   5   7   0 3537.30 919.660   1
  -5  -7   1 2073.44 623.016   5
   5   7   1 1417.02 773.349   1
  -5   7  -1 2013.94 522.220   7
   5  -7  -1 2335.23 916.180   5
   5  -7  -1 1997.72 715.492   4
   5  -7  -1 1431.40 743.828   4
  -5  -7   2-329.027 342.946   5
   5  -7  -2 1195.71 809.494   5
  -5   7  -2 804.155 422.446   7
   5  -7  -2 1007.55 293.610   4
   5   7   2 316.680 770.648   1
   5  -7  -3 2338.93 982.743   5
  -5   7  -3 2215.23 749.481   7
   5   7   3 2887.48 1315.98   1
   5  -7  -4-106.324 1298.53   5
  -5  -7   4 880.775 842.201   2
   5   7   4 526.943 913.092   1
  -5  -7   5 650.058 1120.22   2
   5  -7  -5 763.588 1222.75   5
   5   7   5-936.439 1322.06   1
  -5  -8  -4 4519.21 1680.86   5
  -5   8   4 2705.47 1395.22   1
   5   8  -4 2407.21 1193.47   7
  -5  -8  -3 1088.11 1064.12   5
  -5   8   3 445.127 948.166   1
   5   8  -3 798.903 999.635   7
  -5  -8  -2 288.708 864.994   5
  -5   8   2 2322.56 1057.74   1
   5   8  -2 1375.02 907.356   7
  -5  -8  -1 2850.66 916.001   5
   5   8  -1 2081.86 725.568   1
   5  -8   0 1148.36 757.403   5
  -5  -8   0 379.292 405.414   5
  -5   8   0 221.080 499.503   7
   5   8   0 171.390 624.095   1
  -5  -8   1 3327.83 826.708   5
   5  -8  -1 3758.41 1274.88   5
   5   8   1 3182.69 1161.39   1
   5  -8  -1 4270.50 1037.19   4
   5   8   2-218.277 927.136   1
   5  -8  -2 200.417 1048.88   5
   5  -8  -3 1729.23 853.923   5
   5   8   3 195.770 747.046   1
   5  -8  -4 2308.77 1464.38   5
   5   8   4 3879.42 1504.45   1
  -5  -8   4 4297.78 1510.68   2
  -5  -9  -2-145.430 1146.88   5
   5   9  -2-313.021 730.103   7
  -5   9   2 1496.36 638.837   1
  -5  -9  -1 1316.98 860.536   5
   5   9  -1-250.912 1108.26   7
   5   9   0 2003.63 1032.40   1
   5  -9   0 1709.49 984.830   5
   5  -9   0 1467.61 981.539   4
   5  -9  -1-4.44901 608.440   5
   5   9   1 147.244 657.593   1
   5   9   2-427.828 761.169   1
   5  -9  -2 321.451 583.531   5
  -6   0   0 5371.61 636.016   2
  -6   0   0 3840.96 525.545   4
  -6   0   1 117199. 3086.18   2
  -6   0   1 108564. 2557.15   7
  -6   0  -1 117673. 3057.13   4
  -6   0   1 120917. 2708.70   4
   6   0  -1 118790. 2747.91   4
  -6   0  -1 117910. 2245.22   2
  -6   0  -1 112709. 2712.41   6
   6   0   1 111694. 2300.75   2
   6   0  -1 123343. 2699.57   7
  -6   0   2-237.205 345.311   2
   6   0  -2-54.0189 314.080   5
   6   0  -2 116.797 223.122   1
   6   0  -2-573.886 456.233   7
  -6   0  -2 245.530 170.930   4
  -6   0  -2 37.6145 228.727   6
   6   0   2 119.258 157.894   2
  -6   0   2-112.006 302.507   4
   6   0   3 6328.36 1225.16   3
   6   0  -3 3616.56 728.935   5
  -6   0   3 3998.04 894.817   2
  -6   0   3 4919.95 748.721   5
   6   0  -3 4144.03 646.044   1
  -6   0   3 5326.65 807.529   4
   6   0  -3 4832.04 1017.31   7
   6   0   3 4703.16 957.939   4
   6   0  -3 3579.25 804.967   2
   6   0   3 4429.64 607.550   6
  -6   0  -3 5038.67 651.039   6
   6   0   3 4776.98 838.254   7
  -6   0   4 7744.55 1213.63   2
   6   0   4 9961.60 1782.37   3
   6   0  -4 8356.47 1488.14   7
   6   0   4 8268.29 676.392   2
   6   0   4 7808.70 1235.33   7
   6   0   4 8643.58 1320.12   4
  -6   0   4 9288.20 1240.74   4
   6   0  -4 10227.2 1360.48   2
   6   0  -4 9650.94 1324.09   5
   6   0   4 9038.20 860.107   6
  -6   0   4 9439.72 967.215   1
  -6   0   4 8338.31 1164.63   5
  -6   0   5 52891.1 3380.98   4
   6   0   5 52362.8 1622.05   2
   6   0   5 55559.4 3523.73   4
  -6   0   5 49550.0 3163.39   2
   6   0  -5 50341.4 3832.15   7
  -6   0   5 52907.0 2484.48   1
   6   0   5 54291.4 2058.25   6
   6   0  -5 53541.5 3429.33   5
   6   0  -6 3381.60 1096.49   5
  -6   0   6 2745.67 841.819   2
   6   0  -6 2320.84 1273.82   7
  -6   0   6 4173.13 874.093   1
   6   0   6 2246.54 945.141   4
   6   0  -7 2863.60 1373.80   5
  -6   0   7 1528.65 1065.38   4
   6   0  -7 2779.70 1332.65   7
   6   0   7 2568.26 1196.73   4
  -6   0   7 2004.06 836.871   2
  -6   1   7-1412.06 871.661   1
   6  -1   7 878.685 1092.44   4
   6   1  -7-570.715 1292.58   7
  -6   1   7 230.918 305.802   2
   6   1  -7-430.231 869.101   5
  -6   1   6 466.940 710.863   1
  -6   1   6 1577.73 757.697   4
   6   1  -6 404.991 770.677   5
   6  -1   6 1082.49 485.014   2
  -6  -1  -6 1104.12 968.132   5
   6   1  -6 1141.93 996.812   7
   6  -1   6 487.207 890.633   4
  -6   1   6 456.546 540.208   2
   6  -1   5 3267.90 664.158   2
  -6  -1  -5 3923.44 1171.89   5
  -6   1   5 3634.73 925.310   1
   6   1  -5 3545.91 1008.05   5
   6  -1   5 5937.73 1450.59   4
   6  -1   5 4973.25 881.459   6
  -6   1   5 2978.21 792.630   4
   6   1  -5 5461.17 1443.66   7
  -6   1   5 4369.25 1071.58   2
   6  -1   4 9576.73 1512.22   4
  -6   1   4 9288.78 1136.02   1
  -6   1   4 11063.1 1364.23   5
   6  -1   4 9936.23 1354.60   7
  -6   1   4 8558.35 1257.35   2
  -6   1   4 8564.40 1016.65   4
  -6  -1  -4 10567.5 1632.36   5
   6  -1   4 9144.78 1103.37   6
   6   1  -4 9321.95 1235.30   5
   6   1  -4 9791.71 1672.67   7
   6  -1   3 27673.9 2500.85   3
  -6  -1  -3 21647.3 2327.36   3
   6  -1   3 27542.2 1887.07   7
   6   1  -3 29657.9 2154.79   2
   6  -1   3 24608.9 1607.09   6
  -6  -1  -3 26807.6 1930.09   4
   6  -1   3 26712.7 2098.04   4
  -6   1   3 25034.4 1362.83   4
   6   1  -3 24300.3 1973.69   7
  -6   1   3 27959.0 1991.69   7
  -6   1   3 25285.3 1822.38   2
  -6   1   3 26355.9 1577.89   1
  -6  -1  -3 22960.3 1935.43   5
   6   1  -3 22732.2 1470.43   5
   6   1  -3 26345.2 1190.41   1
  -6  -1  -2 13265.7 1574.46   3
   6  -1   2 15835.3 1158.02   7
  -6  -1  -2 15643.6 1307.62   4
  -6   1   2 13759.2 1237.42   2
  -6   1   2 15420.8 909.372   4
   6   1  -2 14479.8 1300.28   7
  -6  -1  -2 14174.4 822.559   6
   6  -1   2 14561.6 1195.47   6
   6   1  -2 14075.9 794.190   1
  -6  -1  -2 15203.4 1378.11   5
   6   1  -2 15602.1 921.834   5
  -6   1   2 15839.0 1218.65   7
   6  -1   2 16478.6 1660.58   3
  -6  -1  -1 116342. 3038.87   4
  -6   1   1 108569. 2268.31   4
  -6   1   1 106210. 2279.07   7
   6   1  -1 104603. 2838.73   7
  -6  -1  -1 116370. 2263.40   2
   6  -1   1 108279. 3009.51   6
  -6   1   1 108789. 2926.93   2
  -6   1   0 188540. 3431.28   4
   6  -1   0 193163. 3396.27   4
  -6  -1   0 197247. 3764.02   4
  -6   1   0 199517. 3572.43   2
   6   1   0 184074. 3619.07   2
  -6   1   0 187716. 3998.95   6
  -6  -1   0 187821. 3581.34   2
  -6   1  -1 108375. 3114.98   4
   6  -1  -1 115829. 2368.00   4
  -6   1  -1 110600. 3023.94   6
   6  -1  -1 110993. 2653.55   1
   6  -1  -1 106113. 2507.74   7
  -6  -1   1 118139. 3311.17   2
   6   1   1 112801. 2316.80   2
  -6  -1   1 115380. 3004.57   4
   6   1   1 114683. 2923.17   5
   6  -1  -2 14214.2 1108.83   1
  -6   1  -2 16354.6 1496.32   4
   6   1   2 16078.2 1293.31   4
  -6  -1   2 15782.9 1311.08   4
  -6   1  -2 14895.6 1204.86   6
   6  -1  -2 13684.7 1248.46   7
  -6  -1   2 14354.6 1374.66   2
   6   1   2 14409.8 581.208   2
   6  -1  -2 14340.7 1290.60   2
   6  -1  -2 14402.4 1170.50   5
   6  -1  -3 27193.9 2100.01   7
   6  -1  -3 26153.7 1666.78   1
  -6  -1   3 25198.5 1964.89   2
   6   1   3 27542.1 1870.82   4
   6   1   3 24049.4 2228.55   3
   6   1   3 24551.6 1853.51   7
  -6  -1   3 25428.5 1977.92   4
  -6   1  -3 24026.4 1604.29   6
   6  -1  -3 25847.0 1848.26   5
   6  -1  -3 27697.6 1945.72   2
  -6  -1   3 28457.5 1510.34   5
   6   1   4 10506.9 1632.47   3
  -6  -1   4 8541.25 1372.46   2
   6   1   4 10359.1 1368.45   4
   6  -1  -4 10686.3 1598.61   7
   6  -1  -4 9834.11 1385.08   5
   6  -1  -4 10658.9 1395.08   2
  -6  -1   4 8984.60 1533.80   4
  -6  -1   4 10542.2 1211.91   5
   6  -1  -5 3564.43 1119.44   5
  -6  -1   5 3845.16 1067.35   5
  -6  -1   5 2999.54 1018.01   2
   6  -1  -5 3694.00 1188.07   7
   6  -1  -5 2246.77 827.561   2
   6   1   5 4116.43 1169.60   4
   6  -1  -6 1321.27 1020.64   5
  -6  -1   6 438.855 691.020   2
   6   1   6 1267.60 885.722   4
   6  -1  -6 1771.89 825.476   7
   6  -1  -7-123.100 673.946   5
  -6  -1   7-631.832 648.018   2
   6  -1  -7-2699.04 1172.31   7
   6   1   7-105.855 908.608   4
  -6   2   7 1923.67 887.621   1
   6   2  -7 2024.22 1048.81   7
   6  -2   7 276.492 1194.92   4
  -6  -2  -7 1359.69 1297.14   5
   6  -2   6 4868.72 1576.35   4
  -6   2   6 6134.05 1293.88   1
   6   2  -6 6540.80 1781.95   7
  -6   2   6 4798.81 1000.83   6
   6  -2   6 5673.63 1001.95   2
  -6   2   6 5358.93 1098.24   2
  -6  -2  -6 7466.27 1874.03   5
   6   2  -5 220.286 924.496   7
  -6  -2  -5 1137.37 1054.20   5
  -6   2   5 1580.24 692.891   2
   6  -2   5 2512.41 1215.69   4
  -6   2   5 2127.31 568.238   4
  -6   2   5 1458.38 415.145   4
   6  -2   5 1488.03 885.105   6
  -6   2   5 1644.04 852.717   1
   6   2  -5 1252.17 712.451   5
  -6  -2  -4-110.906 665.255   5
   6  -2   4 78.7786 516.035   7
   6   2  -4-711.914 436.190   5
   6   2  -4 575.625 739.925   7
  -6   2   4-196.045 716.161   1
   6  -2   4-1219.10 704.484   6
  -6  -2  -4 373.525 394.731   4
  -6   2   4 413.125 626.846   2
  -6   2   4 556.553 234.166   4
   6  -2   4-3.17263 777.239   4
   6  -2   3 4150.99 970.653   3
   6  -2   3 4557.70 865.098   7
  -6  -2  -3 3351.18 665.061   4
  -6  -2  -3 5549.26 1294.93   3
  -6   2   3 3865.24 843.317   1
   6  -2   3 5550.43 1057.25   5
  -6   2   3 4209.09 409.591   4
  -6   2   3 4265.80 878.619   7
   6   2  -3 5596.12 1029.06   7
  -6  -2  -3 2813.21 841.983   5
   6  -2   3 4466.10 952.211   6
  -6   2   3 3805.72 789.274   2
  -6   2   3 3408.40 773.243   6
   6   2  -3 3762.15 602.143   5
   6  -2   2 35635.7 2451.17   3
  -6  -2  -2 31134.3 2199.85   3
  -6   2   2 31360.9 1818.45   2
  -6  -2  -2 33182.1 1869.50   4
  -6   2   2 31829.3 985.345   4
   6  -2   2 32437.5 1529.46   7
  -6   2   2 29579.4 1744.87   1
   6   2  -2 35992.4 2074.53   7
   6  -2   2 35028.2 2111.16   6
  -6   2   2 31104.6 1928.96   6
  -6  -2  -2 33697.1 1034.09   2
  -6  -2  -2 31742.1 1997.47   5
  -6   2   2 32502.6 1775.42   7
  -6  -2  -1 62444.5 2324.62   4
  -6  -2  -1 63550.9 1990.06   2
  -6   2   1 66054.1 2664.20   6
  -6   2   1 65160.8 1769.23   4
   6  -2   1 66158.1 1297.48   7
  -6   2   1 63141.8 1760.71   7
  -6  -2  -1 64828.8 2292.52   5
  -6  -2   0 150886. 3589.39   2
  -6   2   0 151486. 3373.90   4
   6  -2   0 151459. 3253.41   4
  -6  -2   0 156449. 3676.65   4
  -6   2   0 160126. 4099.64   6
   6   2   0 159786. 2537.96   5
  -6  -2   0 160895. 2478.46   5
  -6   2  -1 64363.6 2839.31   3
  -6  -2   1 65880.9 2630.36   4
  -6  -2   1 63815.5 2685.44   2
   6  -2  -1 58924.2 2253.31   1
   6  -2  -1 61015.4 1617.06   4
   6   2   1 58738.0 2296.35   4
  -6   2  -1 52842.8 2440.22   6
   6  -2  -1 59519.4 1855.47   7
   6   2   1 63584.6 2290.03   5
  -6   2  -2 35118.1 2613.38   3
   6  -2  -2 35645.0 1967.90   1
   6  -2  -2 29146.3 1780.20   7
   6  -2  -2 29766.8 1887.31   2
   6   2   2 31751.2 1784.12   4
  -6   2  -2 32614.4 2033.19   6
  -6  -2   2 35433.8 2250.65   2
  -6  -2   2 33018.6 2200.89   4
   6   2   2 34799.7 2149.75   5
   6  -2  -2 34064.8 1948.92   5
   6   2   3 4877.06 1021.17   5
   6  -2  -3 4387.94 868.351   2
   6  -2  -3 2606.37 846.562   5
  -6  -2   3 1886.13 885.823   4
  -6  -2   3 4079.31 980.708   2
   6  -2  -3 3962.67 865.558   7
   6   2   3 3093.01 727.314   4
   6  -2  -3 4729.93 820.880   1
  -6   2  -3 3571.41 1221.56   3
  -6  -2   3 4827.80 634.715   5
   6   2   4-661.084 640.484   3
   6  -2  -4-306.369 815.796   7
   6  -2  -4 165.325 667.576   5
  -6  -2   4 368.794 485.116   5
   6  -2  -4 428.156 515.788   2
  -6  -2   4-61.1772 577.519   2
   6   2   4 261.378 579.466   4
   6  -2  -5 1093.62 901.463   5
  -6  -2   5 1058.82 744.583   5
  -6  -2   5 1260.39 769.125   2
   6  -2  -5 2216.19 1074.38   7
   6  -2  -5 2791.43 864.695   2
   6   2   5 1693.20 860.384   4
   6  -2  -6 3446.89 1271.51   5
   6  -2  -6 3555.26 1596.96   7
  -6  -2   6 5561.46 1291.65   2
   6   2   6 4311.94 1166.97   4
   6  -2  -7-793.829 983.227   5
  -6  -2   7 721.499 684.652   2
   6   2   7 1927.90 1112.49   4
   6   2   7 782.154 1147.75   1
  -6   3   7 592.229 997.317   1
   6  -3   7 576.846 1298.79   4
   6   3  -7 427.332 932.940   7
  -6  -3  -7-3132.16 1666.62   5
   6   3  -6 1410.37 946.095   7
  -6   3   6-2166.47 1190.88   1
   6  -3   6 906.316 1175.17   4
  -6  -3  -6-1813.52 1099.33   5
   6  -3   6 694.876 494.072   2
  -6  -3  -5 3102.87 1209.08   5
  -6   3   5 3571.84 933.900   6
  -6   3   5 3920.21 1179.87   1
   6  -3   5 4300.02 1403.14   4
   6   3  -5 4469.02 1256.10   7
  -6  -3  -4-1103.96 812.534   5
   6  -3   4-82.4357 974.651   4
  -6   3   4 12.9295 568.049   6
  -6  -3  -4 150.879 176.514   4
   6  -3   4 534.812 628.420   7
   6  -3   4-52.4258 629.974   6
   6   3  -4 241.137 747.716   7
  -6   3   4-12.8068 587.025   1
   6  -3   3 26892.4 2595.14   3
  -6  -3  -3 24548.2 2363.15   3
   6   3  -3 25140.1 2159.69   7
   6  -3   3 28338.7 2469.52   4
  -6  -3  -3 25448.6 1841.34   4
  -6   3   3 25091.2 1967.05   1
  -6   3   3 25618.9 2046.19   7
   6  -3   3 25230.1 1677.70   7
  -6   3   3 23399.1 1858.20   6
   6  -3   3 28305.8 2306.78   6
  -6  -3  -3 27934.3 2307.67   5
   6   3  -2 21451.6 1704.00   7
   6  -3   2 20296.6 1911.35   3
  -6  -3  -2 20087.4 1741.61   3
  -6   3   2 18351.4 1405.73   7
  -6   3   2 18332.2 1609.76   6
  -6  -3  -2 20250.4 1152.35   2
  -6  -3  -2 20851.9 1535.50   4
   6  -3   2 24065.5 2018.49   6
  -6  -3  -2 19599.1 1737.86   5
   6  -3   2 20849.5 1117.82   7
   6  -3   1 17768.1 1550.14   4
  -6   3   1 16877.8 1533.06   6
  -6  -3  -1 17120.8 1348.30   4
  -6   3   1 16993.2 998.922   7
  -6  -3  -1 16401.3 1291.03   5
   6  -3   0 2393.07 506.407   1
  -6  -3   0 2874.51 458.037   5
   6  -3   0 2801.26 576.490   4
  -6   3   0 2381.44 706.686   6
  -6  -3   0 2281.65 620.626   4
  -6  -3   0 2742.77 684.964   2
   6   3   0 2286.03 760.733   4
   6   3   0 3316.20 422.712   5
  -6   3  -1 17703.0 1609.63   3
  -6   3  -1 14739.8 1534.26   6
   6  -3  -1 17350.5 1416.63   1
   6  -3  -1 16806.6 941.080   4
   6  -3  -1 14182.6 1446.80   6
  -6  -3   1 15093.9 1480.32   4
  -6  -3   1 15693.1 1553.62   2
   6   3   1 16696.4 1397.85   4
   6   3   1 16508.4 1235.38   5
   6  -3  -2 19500.3 1636.19   1
  -6   3  -2 20471.4 2109.81   3
   6  -3  -2 20472.5 1643.79   2
  -6  -3   2 21698.7 1917.65   2
  -6   3  -2 17225.5 1727.81   6
  -6   3  -2 18561.1 1153.59   7
  -6  -3   2 20652.3 1890.10   4
   6   3   2 19907.4 1706.54   5
   6   3   2 20752.6 1496.08   4
   6  -3  -2 19646.7 1666.13   5
   6   3   3 23093.9 1689.29   4
  -6   3  -3 24451.7 1722.23   7
   6  -3  -3 23572.8 2072.13   5
  -6  -3   3 25818.8 2352.36   2
  -6  -3   3 26526.9 2428.83   4
   6  -3  -3 23534.7 1879.53   2
   6  -3  -3 22844.8 1928.44   1
  -6  -3   3 25385.7 1170.09   5
   6   3   3 28685.9 2284.92   5
  -6  -3   4-246.730 649.326   2
   6  -3  -4 358.532 674.442   5
  -6  -3   4 474.851 455.421   5
   6  -3  -4-19.5367 446.280   2
   6   3   4 400.229 539.268   4
  -6   3  -4 304.964 553.339   7
  -6  -3   5 3789.59 886.301   5
   6  -3  -5 2270.93 1058.79   2
  -6  -3   5 3607.24 1338.96   2
   6  -3  -5 4366.57 1297.78   5
   6   3   5 2800.81 884.971   4
  -6   3  -5 5619.87 1428.15   7
   6  -3  -6 1336.22 908.537   5
  -6  -3   6-112.608 787.423   2
   6   3   6-114.982 656.800   4
  -6  -3   7-19.3460 1063.85   2
   6   3   7-66.0954 859.830   1
   6  -4   6 256.263 1268.72   4
  -6   4   6 393.180 1077.93   1
  -6  -4  -6 16.0508 1090.57   5
   6   4  -6 1758.69 1007.16   7
  -6  -4  -5 616.151 790.897   5
  -6   4   5 1375.79 853.460   1
  -6   4   5 2427.42 619.109   6
   6   4  -5 1570.79 912.866   7
   6  -4   5 2759.36 1249.11   4
  -6  -4  -4 1735.97 916.549   5
   6   4  -4 3701.66 1164.40   7
  -6  -4  -4 2694.56 853.914   4
  -6   4   4 1906.20 1041.66   1
   6  -4   4 4514.29 1007.48   7
   6  -4   4 4264.80 1417.22   4
  -6   4   4 2466.53 891.588   6
  -6  -4  -3 629.135 716.680   3
  -6  -4  -3 589.602 591.555   5
   6  -4   3 441.908 555.979   3
  -6   4   3 133.896 464.515   6
   6  -4   3 795.994 479.610   7
   6  -4   3-37.4288 703.692   4
  -6   4   3 876.707 504.820   7
   6   4  -3 558.411 662.214   7
  -6   4   3 521.432 696.030   1
  -6  -4  -3 229.206 220.677   6
  -6  -4  -3 386.858 461.906   4
  -6  -4  -2 4254.74 996.849   5
  -6   4   2 6103.96 894.889   7
  -6  -4  -2 4946.30 980.848   3
   6  -4   2 5479.25 1159.72   4
   6   4  -2 5787.04 1108.61   7
  -6  -4  -2 5382.56 866.074   4
   6  -4   2 4610.24 1115.68   6
  -6   4   2 5766.47 1073.96   6
   6  -4   2 5501.90 774.511   1
   6   4  -2 4930.84 465.872   1
   6  -4   2 4387.47 1006.56   3
   6  -4   1 27649.9 2096.05   4
   6  -4   1 26092.2 1696.69   1
  -6  -4  -1 31096.8 1979.87   4
  -6   4   1 28923.3 1472.53   7
  -6   4   1 27894.6 2142.05   6
  -6  -4  -1 26545.6 1767.36   5
  -6   4   0 6084.46 843.968   3
   6  -4   0 7104.17 1000.37   1
  -6   4   0 6977.78 485.044   7
   6  -4   0 6339.30 909.667   4
  -6   4   0 6291.27 1121.16   6
  -6  -4   0 6127.84 974.746   4
  -6  -4   0 7047.67 757.418   5
   6  -4  -1 27378.3 1939.58   1
  -6   4  -1 28103.1 905.373   7
   6  -4  -1 29231.1 1419.17   4
   6  -4  -1 28670.2 2165.95   6
  -6  -4   1 27570.3 971.902   5
  -6   4  -1 31320.7 2428.19   6
   6   4   1 29280.4 2093.12   4
  -6  -4   1 27819.9 2180.04   4
  -6   4  -1 31705.4 2233.44   3
   6   4   1 30809.7 1754.89   5
   6   4   2 5933.81 983.339   5
   6  -4  -2 4968.64 1040.31   5
   6  -4  -2 6882.70 1144.63   1
  -6   4  -2 6749.06 748.582   7
  -6   4  -2 5280.32 1149.71   6
  -6  -4   2 6278.90 1265.11   2
   6  -4  -2 5696.36 991.539   2
   6   4   2 4714.88 867.533   4
  -6  -4   2 5808.00 1204.70   4
  -6   4  -3 687.631 479.317   7
  -6  -4   3 650.268 267.043   5
   6  -4  -3 93.0072 610.931   5
   6   4   3 843.274 570.765   4
   6  -4  -3 723.326 465.301   2
  -6  -4   3 832.229 739.075   2
   6  -4  -4 2845.67 838.316   2
  -6  -4   4 4010.16 673.455   5
   6  -4  -4 3247.66 1227.11   5
   6   4   4 4363.55 963.124   4
  -6   4  -4 3561.81 911.593   7
  -6  -4   4 3404.93 1130.63   2
   6  -4  -5 537.544 718.483   5
   6   4   5 1528.22 593.729   4
  -6  -4   5 268.885 592.629   2
  -6   4  -5 1221.10 844.255   7
   6  -4  -6 184.710 1088.93   5
  -6   4  -6 1852.80 1181.61   7
   6   4   6-536.329 1320.89   1
  -6  -4   6 1508.89 900.126   2
   6   5  -6 5465.60 1462.09   7
   6  -5   6 2724.15 1848.99   4
  -6   5   6 1731.53 1337.80   1
  -6  -5  -6 4029.66 1394.98   5
   6   5  -5 432.382 414.506   7
  -6   5   5 1220.00 742.095   1
  -6   5   5 1677.38 562.892   6
   6  -5   5 623.864 1152.62   4
   6  -5   4 3275.12 1001.84   7
   6  -5   4 4840.97 752.631   1
  -6  -5  -4 4724.17 568.373   2
  -6   5   4 4916.67 1328.61   1
   6   5  -4 5564.30 1402.53   7
  -6  -5  -4 4713.71 1455.01   5
   6  -5   4 4916.35 1453.00   4
  -6   5   4 4481.61 956.767   6
  -6  -5  -4 4012.49 821.649   4
  -6  -5  -3 1101.27 804.528   5
  -6  -5  -3-1241.24 877.324   3
  -6  -5  -3 1305.51 586.866   4
  -6  -5  -3 1733.82 534.561   6
  -6   5   3 1664.66 764.522   6
   6   5  -3 2257.02 876.021   7
  -6   5   3 1409.56 674.516   7
  -6   5   3 2553.09 974.773   1
   6  -5   3 1427.28 437.602   1
  -6  -5  -2 9329.32 1178.19   3
  -6  -5  -2 8396.48 1349.46   5
   6   5  -2 9811.54 759.047   1
   6  -5   2 9286.84 1127.31   1
  -6  -5  -2 8811.32 1172.38   4
  -6   5   2 9830.88 1406.79   1
   6   5  -2 10631.0 1471.59   7
  -6  -5  -2 9262.59 1222.46   6
  -6   5   2 10749.0 1294.26   7
  -6   5   2 8666.06 1355.98   6
  -6   5   1 8330.91 765.837   3
  -6   5   1 7919.24 1224.21   1
   6  -5   1 8298.26 1143.11   1
  -6  -5  -1 8646.31 1164.00   4
  -6   5   1 7779.33 1401.99   6
  -6  -5  -1 7225.63 1109.75   5
  -6   5   1 6731.98 848.157   7
   6   5  -1 8876.61 989.467   1
   6  -5   0 9651.41 1220.40   1
  -6   5   0 9431.57 1561.00   6
   6  -5   0 10433.6 1314.04   4
  -6   5   0 9782.33 1068.01   3
  -6  -5   0 10571.2 1346.54   4
   6  -5   0 8562.84 1469.59   6
  -6  -5   0 8830.92 1008.69   5
   6  -5  -1 8734.55 1269.40   1
   6  -5  -1 7357.81 900.958   4
   6  -5  -1 8118.88 1321.87   6
  -6   5  -1 7743.56 609.462   7
  -6   5  -1 8505.50 1470.81   6
  -6  -5   1 7424.62 1366.16   4
  -6  -5   1 7294.93 722.626   5
   6  -5  -2 9569.31 1530.38   5
   6  -5  -2 8905.72 504.112   4
  -6   5  -2 9482.81 881.961   7
   6  -5  -2 9636.25 545.652   4
   6   5   2 10692.5 1445.31   4
  -6  -5   2 8637.48 524.990   5
   6  -5  -2 11443.3 1422.02   2
   6  -5  -2 8578.35 1351.77   6
  -6  -5   2 9732.75 551.929   5
   6   5   2 9994.80 1336.20   5
  -6  -5   3 1118.39 258.794   5
   6  -5  -3 2234.15 899.000   5
   6   5   3 1733.49 694.355   4
  -6  -5   3 1665.67 926.019   2
  -6   5  -3 1286.38 654.194   7
   6  -5  -4 5153.52 1464.85   5
   6   5   4 4988.55 953.834   4
  -6   5  -4 4729.74 1023.40   7
  -6  -5   4 4978.10 1410.97   2
   6   5   4 6195.11 1485.32   1
   6  -5  -5-483.702 870.638   5
   6   5   5 45.3204 843.531   1
  -6   5  -5 779.385 575.885   7
  -6  -5   5 490.516 578.236   2
   6   5   5 373.807 483.810   4
   6  -5  -6 2517.10 1556.22   5
  -6  -5   6 1876.47 1261.91   2
  -6   5  -6 2141.88 1235.99   7
   6   5   6 2415.81 1244.22   1
  -6  -6  -5-861.705 959.490   5
   6  -6   5 2201.66 1360.34   4
  -6   6   5 2264.72 1137.07   1
   6   6  -5 244.612 1195.11   7
  -6  -6  -4 1491.72 894.441   5
   6   6  -4-380.005 819.598   7
   6  -6   4 968.880 876.275   4
  -6   6   4 536.878 922.544   1
  -6   6   4 2567.15 840.609   6
  -6  -6  -3 714.489 771.774   5
  -6   6   3 1079.89 738.432   1
  -6  -6  -3 1781.86 603.786   4
   6  -6   3 722.370 420.875   1
   6   6  -3 898.877 709.979   7
  -6  -6  -3 1083.30 551.065   6
  -6   6   3 452.897 495.290   6
  -6   6   3 1871.48 733.230   7
  -6  -6  -2 8819.83 1035.12   3
  -6  -6  -2 8480.00 1431.11   5
   6  -6   2 8141.02 1107.03   1
   6   6  -2 9400.41 863.602   1
  -6  -6  -2 8817.80 1244.62   4
  -6   6   2 8620.28 1512.72   6
  -6   6   2 7473.44 1303.77   1
   6   6  -2 9329.21 1480.13   7
  -6   6   2 8720.65 1263.40   7
  -6  -6  -2 8546.39 1314.69   6
   6   6  -1 1225.87 554.644   1
  -6  -6  -1 689.600 608.331   5
   6  -6   1 438.795 344.346   1
  -6   6   1 979.199 475.276   7
  -6   6   1 629.165 557.079   6
  -6  -6  -1 2108.21 641.081   4
  -6   6   1 417.547 603.740   1
  -6  -6  -1 1053.24 587.600   6
  -6  -6   0 1649.18 564.815   5
   6  -6   0 2530.96 854.211   4
  -6   6   0 3112.10 1041.45   6
   6   6   0 1875.45 692.875   1
  -6  -6   1 1286.85 475.699   5
  -6   6  -1 848.950 330.716   7
   6  -6  -1 1239.17 514.379   4
   6   6   1 1313.74 873.561   1
   6  -6  -2 8897.65 1519.76   5
  -6   6  -2 10101.2 983.867   7
   6  -6  -2 8331.65 647.050   4
   6  -6  -2 9835.07 708.670   4
   6   6   2 9903.72 1650.96   1
  -6  -6   2 8474.36 696.520   5
  -6  -6   3 726.064 227.607   5
   6  -6  -3 1558.62 839.106   5
  -6  -6   3 835.267 215.861   5
  -6   6  -3 886.565 546.352   7
   6   6   3 786.783 785.165   1
   6   6   3 953.208 784.341   4
   6  -6  -4 1860.68 988.529   5
  -6   6  -4 1488.50 572.471   7
  -6  -6   4 1384.35 706.894   2
   6   6   4 1205.07 1116.27   1
   6   6   4 836.433 707.329   4
   6  -6  -5-844.370 1030.51   5
  -6  -6   5 387.897 1039.60   2
  -6   6  -5 346.442 498.533   7
   6   6   5-830.449 1372.29   1
  -6  -7  -5 23.0844 1105.82   5
  -6   7   5 1542.22 1248.68   1
   6  -7   5 4353.30 1732.89   4
   6   7  -5 3557.64 1247.09   7
  -6  -7  -4 1925.96 1157.35   5
  -6   7   4 2633.91 1389.17   1
   6  -7   4 3344.67 1492.66   4
  -6   7   4 2328.60 832.533   6
   6   7  -4 1712.49 1077.34   7
  -6  -7  -3 484.141 525.407   5
   6   7  -3 816.428 707.764   7
  -6   7   3 1196.71 651.926   6
  -6   7   3 710.941 810.687   1
   6   7  -2 1610.44 922.926   7
  -6  -7  -2 1322.05 627.939   5
  -6   7   2 1067.87 647.816   6
  -6  -7  -2 929.669 575.169   4
  -6   7   2 1184.34 764.068   1
   6   7  -2 1040.03 410.099   1
  -6  -7  -1 4035.27 1010.86   5
   6   7  -1 5225.33 953.121   1
  -6   7   1 6918.25 977.675   7
  -6   7   1 6284.48 1527.53   6
  -6  -7  -1 4953.60 568.036   3
   6   7   0 2148.92 823.213   1
  -6  -7   0 1274.97 609.898   5
   6  -7   0 1008.35 778.576   4
  -6  -7   1 3850.46 732.720   5
   6  -7  -1 5385.61 1280.01   5
   6  -7  -1 7029.91 1074.49   4
  -6   7  -1 5055.73 668.614   7
   6   7   1 4371.00 1245.63   1
   6  -7  -2 1396.14 303.151   4
  -6  -7   2 214.618 266.581   5
   6  -7  -2 2048.19 893.991   5
  -6   7  -2 1218.24 448.582   7
   6   7   2 205.437 773.516   1
   6  -7  -3 262.032 1089.57   5
   6   7   3-3.99623 757.071   1
   6  -7  -4 3227.82 1103.14   5
  -6  -7   4 2364.59 1002.88   2
   6   7   4 1498.72 1056.78   1
  -6  -7   5-289.135 333.601   2
   6   7   5 77.4292 1466.58   1
  -6  -8  -4-568.226 784.862   5
  -6   8   4-1996.25 1312.10   1
   6  -8   4 1669.70 1061.83   4
   6   8  -4 557.309 950.192   7
  -6  -8  -3 3094.02 1284.49   5
  -6   8   3 3625.50 1291.45   1
   6  -8   3 2492.46 1358.32   4
   6   8  -3 1435.21 970.536   7
  -6  -8  -2 1797.89 855.524   5
   6   8  -2 958.889 894.303   7
  -6   8   2 494.528 696.185   1
   6   8  -1 2279.01 817.625   1
  -6  -8  -1 2557.73 805.883   5
  -6  -8   0 494.946 643.763   5
   6  -8   0 606.549 909.936   4
   6   8   0 2462.05 945.515   1
   6   8   1 1712.41 937.306   1
   6  -8  -1 2263.77 1112.14   5
   6  -8  -1 1647.58 707.873   4
   6   8   2 1014.66 945.629   1
   6  -8  -2 1751.46 814.214   5
   6   8   3 2647.57 1288.03   1
   6  -8  -3 4353.38 1285.61   5
   6   8   4 15.2954 1267.43   1
   6  -8  -4 272.242 849.952   5
  -6  -8   4 1798.39 978.703   2
  -6  -9  -2 343.839 1067.80   5
   6  -9   2 1463.22 842.773   4
   6   9  -2 869.435 902.791   7
   6   9  -1 74.7703 1084.37   7
  -6  -9  -1 525.732 767.291   5
   6  -9   1-208.750 1117.80   4
   6  -9   0 4775.27 1359.40   5
   6  -9   0 2010.52 1125.02   4
   6   9   0 1730.52 1081.94   1
   6  -9  -1-836.878 931.100   5
   6   9   1 337.641 699.481   1
   6  -9  -2 357.841 817.715   5
   6   9   2 2013.64 1092.56   1
  -7   0   0-36.3464 245.955   4
  -7   0   0-589.700 376.584   2
  -7   0  -1 14687.3 1192.99   4
  -7   0  -1 11278.6 963.129   6
  -7   0   1 14804.2 1047.95   4
   7   0  -1 13331.3 1009.20   4
  -7   0   1 15019.0 1223.81   2
  -7   0  -1 15844.9 938.736   2
   7   0  -1 13673.5 991.729   7
   7   0   1 13678.8 929.700   2
   7   0  -2 108.353 557.677   7
  -7   0   2 175.215 563.140   2
   7   0  -2 3.17755 355.552   5
  -7   0   2 82.3718 438.433   7
  -7   0  -2 27.2869 500.626   4
  -7   0  -2 252.107 337.234   6
  -7   0   2 273.080 339.814   4
   7   0  -2 113.640 339.362   1
   7   0   2 98.6519 249.196   2
   7   0  -3 76328.6 2511.97   1
   7   0   3 76424.9 3135.02   7
   7   0   3 86454.4 3536.46   4
   7   0  -3 80834.7 3465.30   2
   7   0  -3 79086.4 3502.06   7
  -7   0   3 84756.2 3039.07   4
  -7   0   3 80997.8 3374.82   2
  -7   0  -3 80850.5 2438.13   6
  -7   0  -3 89121.4 3715.51   4
   7   0   3 78577.9 2479.61   6
   7   0   3 84408.4 1843.58   2
   7   0  -3 81281.3 2960.55   5
  -7   0   3 79639.8 3233.47   7
   7   0   3 92877.1 4380.08   3
   7   0  -4 3186.13 939.624   5
  -7   0   4 3496.85 905.389   2
   7   0   4 4063.72 497.229   2
  -7   0   4 4387.40 891.605   5
  -7   0  -4 650.581 1049.08   3
   7   0   4 4526.03 1065.08   4
   7   0   4 4111.95 429.508   2
   7   0  -4 3403.97 1084.75   7
   7   0  -4 3994.57 994.663   2
   7   0   4 4175.47 1054.68   7
   7   0   4 3843.79 629.617   6
  -7   0   4 4428.33 873.336   4
   7   0  -5 9826.77 1635.95   5
  -7   0   5 9936.42 1662.87   2
   7   0   5 10841.8 647.561   2
   7   0   5 11959.0 1804.03   4
   7   0   5 10301.2 672.502   2
   7   0   5 11047.8 1004.99   6
   7   0  -5 8104.08 1728.23   7
  -7   0   5 10779.0 1504.89   4
   7   0  -6 2136.64 1063.39   5
   7   0   6 2486.56 1165.51   4
  -7   0   6 1903.06 903.161   2
   7   0  -6 2062.86 1182.22   7
   7   0  -7-649.371 848.807   5
   7   0  -7-276.968 726.898   7
   7   0   7-313.624 1023.85   4
  -7   0   7-248.872 362.494   2
   7  -1   7 5359.69 1290.29   4
   7   1  -7 2445.51 1446.28   7
  -7   1   7 3802.33 967.601   1
  -7   1   7 2083.39 997.420   2
   7   1  -7 1226.45 1102.52   5
   7   1  -6 2101.19 1053.79   5
   7  -1   6 1934.05 637.102   2
   7   1  -6 4295.98 1517.10   7
   7  -1   6 2639.79 1236.10   4
  -7   1   6 1374.21 807.254   1
  -7   1   6 1528.77 679.363   2
  -7   1   5 13091.2 1515.04   1
  -7   1   5 13184.5 1800.79   2
   7  -1   5 10463.7 1792.49   4
   7  -1   5 13335.3 1194.42   2
   7   1  -5 10050.7 2019.69   7
  -7   1   5 10747.4 1334.87   4
   7   1  -5 13400.2 1680.28   5
   7  -1   5 14237.9 1492.79   6
  -7  -1  -5 11897.4 2006.54   5
   7   1  -4 7263.28 1063.93   5
   7   1  -4 7110.77 1342.83   7
  -7  -1  -4 4140.93 1430.39   3
   7  -1   4 8954.13 1127.01   6
  -7  -1  -4 8506.85 1504.63   5
   7  -1   4 5495.73 1303.34   4
   7  -1   4 8923.68 1340.47   7
  -7   1   4 8351.13 979.060   4
  -7   1   4 7207.07 1010.76   1
  -7   1   4 7936.46 1251.23   2
  -7  -1  -3 1272.59 711.762   5
   7   1  -3 1263.59 447.834   5
   7  -1   3 2307.47 829.242   3
   7   1  -3 2765.68 466.559   1
   7  -1   3 2049.72 803.024   4
  -7  -1  -3 1493.61 1068.67   3
  -7  -1  -3 1184.32 532.240   4
   7  -1   3 1790.72 554.956   6
   7  -1   3 1972.87 644.421   7
   7   1  -3 1794.26 650.284   2
   7   1  -3 1743.93 739.137   7
  -7   1   3 1986.17 466.662   4
  -7   1   3 1149.83 575.277   7
  -7  -1  -3 1654.42 319.460   6
  -7   1   3 1803.90 758.084   2
  -7  -1  -2 43929.3 2700.90   3
  -7  -1  -2 44790.7 2285.15   4
  -7   1   2 43212.6 1621.16   4
   7  -1   2 37766.2 1749.31   7
   7   1  -2 39455.8 2128.74   7
  -7  -1  -2 44910.6 2327.91   5
   7  -1   2 42958.0 2090.32   6
  -7  -1  -2 40471.2 1546.31   6
  -7   1   2 40880.8 1955.25   7
  -7   1   2 41405.2 2181.50   2
   7   1  -2 41824.8 1483.63   5
  -7  -1  -1 10128.9 785.469   2
  -7  -1  -1 11165.1 1070.11   4
  -7   1   1 10395.5 817.765   4
   7  -1   1 10469.8 881.829   2
   7   1  -1 10117.2 1008.87   7
   7  -1   1 10457.5 1054.75   6
  -7   1   1 11377.9 814.803   7
  -7   1   1 9768.73 1027.70   2
  -7   1   0 275374. 4480.27   4
   7  -1   0 275013. 4360.22   4
  -7  -1   0 288304. 4837.24   4
  -7   1   0 276393. 4511.58   2
   7   1   0 275945. 4668.53   2
  -7   1   0 268286. 5130.25   6
  -7  -1   0 279761. 4648.07   2
  -7   1  -1 8669.59 990.556   4
   7  -1  -1 10941.8 867.016   7
   7   1   1 11282.2 854.563   2
   7  -1  -1 10913.2 862.405   4
  -7  -1   1 9298.66 947.930   4
  -7  -1   1 11353.6 1162.79   2
  -7   1  -1 10987.7 1063.93   6
   7   1   1 10438.3 972.536   5
   7  -1  -2 42177.0 2246.15   2
   7  -1  -2 43511.0 1952.48   1
  -7  -1   2 37236.9 2266.57   2
   7   1   2 43424.2 2150.36   4
   7   1   2 45128.8 1261.03   2
  -7  -1   2 39131.5 2098.03   4
  -7   1  -2 39604.3 1980.49   6
   7  -1  -2 41959.4 1749.28   4
  -7   1  -2 41447.7 2421.04   4
   7  -1  -2 42661.0 2125.69   7
   7  -1  -2 43246.9 1985.95   5
   7  -1  -3 1648.36 552.653   1
   7  -1  -3 1437.79 678.604   5
  -7   1  -3 2474.47 668.961   6
  -7  -1   3 1268.80 649.101   2
   7  -1  -3 1946.23 677.069   2
   7  -1  -3 1746.22 704.052   7
   7   1   3 1482.35 639.191   4
   7   1   3 1280.10 555.509   7
  -7  -1   3 1955.20 637.967   4
   7   1   4 8990.55 1625.59   3
   7  -1  -4 7766.56 1350.11   5
  -7  -1   4 8288.62 1364.73   2
   7  -1  -4 4893.16 1086.28   2
   7  -1  -4 8139.96 1440.05   7
   7   1   4 7279.49 1261.12   4
   7  -1  -4 8065.30 1081.74   1
  -7  -1   4 6532.42 1254.88   4
  -7  -1   4 7308.05 1010.59   5
   7  -1  -5 11934.5 1810.27   5
   7   1   5 12830.6 1786.66   4
  -7  -1   5 12784.6 1892.78   2
   7  -1  -5 12216.1 1743.80   2
   7  -1  -5 13523.9 2218.59   7
  -7  -1   5 13732.6 1619.82   5
   7  -1  -6 2256.53 1125.14   5
  -7  -1   6 4304.75 1064.04   2
   7   1   6 3152.57 1160.28   4
   7  -1  -6 2883.88 1370.77   7
   7  -1  -7 3853.93 1395.22   5
  -7  -1   7 2429.62 1013.33   2
   7   1   7 5465.74 1424.18   4
   7  -1  -7 2843.93 1600.74   7
  -7   2   7-1238.18 1058.06   1
   7  -2   7 1114.13 1168.83   4
  -7  -2  -7-108.962 965.544   5
   7   2  -7 523.555 1471.61   7
  -7   2   6 5223.43 1092.57   6
   7  -2   6 4680.01 1479.01   4
   7   2  -6 5825.69 1711.64   7
   7  -2   6 4654.87 1034.55   2
  -7   2   6 6002.52 1082.90   2
   7   2  -6 4745.45 1100.70   5
  -7  -2  -6 5203.13 1793.07   5
  -7   2   6 4401.86 1163.74   1
   7  -2   5 9556.50 1831.53   4
   7   2  -5 9542.11 1329.59   5
  -7   2   5 9769.86 977.806   4
  -7   2   5 9247.68 1414.11   1
  -7   2   5 10291.3 952.534   4
   7  -2   5 9774.51 1491.68   6
  -7   2   5 6848.64 1238.50   2
   7   2  -5 9878.80 1937.24   7
  -7  -2  -5 10496.3 1808.50   5
  -7  -2  -4 31092.2 2378.25   4
   7  -2   4 31617.7 2763.43   4
  -7   2   4 31290.6 1389.37   4
  -7   2   4 31457.0 2226.06   1
  -7   2   4 31315.9 2269.90   2
   7  -2   4 33441.6 2408.29   7
   7   2  -4 30345.1 2696.81   7
   7  -2   4 30897.2 2283.54   6
   7   2  -4 31098.4 1872.01   5
  -7  -2  -4 30768.1 2692.25   5
   7  -2   3 9385.14 1545.73   3
   7   2  -3 8863.58 588.343   1
  -7  -2  -3 7664.73 1321.02   5
  -7  -2  -3 10386.4 1692.88   3
  -7  -2  -3 10288.4 1254.24   4
  -7   2   3 8267.41 625.313   4
   7   2  -3 7808.57 1312.43   7
   7  -2   3 8003.22 1068.75   7
   7  -2   3 9351.61 1257.85   6
  -7   2   3 8664.81 1139.69   1
  -7   2   3 8874.21 1228.54   7
  -7   2   3 8722.56 1159.17   2
  -7   2   3 6428.64 1104.63   6
   7  -2   3 10459.2 1407.91   5
   7   2  -3 10035.9 875.251   5
  -7  -2  -2 72595.3 3487.49   3
  -7  -2  -2 81637.9 1780.32   2
  -7   2   2 83901.6 2793.74   7
  -7  -2  -2 84466.1 3100.59   4
  -7   2   2 85827.3 1888.77   4
  -7   2   2 82393.5 3248.90   6
  -7   2   2 86285.0 3080.94   2
   7   2  -2 86967.4 3277.09   7
   7  -2   2 87763.2 3367.57   6
   7  -2   2 77717.1 2345.65   7
   7   2  -2 80260.8 1403.06   5
  -7  -2  -2 84043.8 3248.62   5
   7  -2   1 30621.3 1881.65   4
  -7   2   1 29798.9 1329.77   4
  -7  -2  -1 30604.9 1775.28   4
  -7  -2  -1 34633.0 1569.84   2
   7  -2   1 32125.4 956.250   7
  -7   2   1 28493.3 1887.27   6
  -7  -2  -1 30799.6 1618.61   5
  -7   2   1 29829.1 1220.82   7
   7   2   0 130.419 208.808   5
   7  -2   0 476.183 344.145   4
  -7  -2   0 321.116 456.989   2
  -7   2   0 72.9660 282.564   4
  -7  -2   0 142.961 326.698   4
  -7   2   0-440.871 501.925   6
  -7   2  -1 33132.9 2036.06   6
   7  -2  -1 29773.1 1378.86   7
  -7   2  -1 33248.3 2003.47   4
   7  -2  -1 28649.8 1253.14   4
   7   2   1 29676.8 1655.75   5
  -7  -2   1 26044.2 1756.19   4
  -7  -2   1 25520.1 1807.41   2
   7   2   1 30461.3 1817.36   4
   7  -2  -1 32510.7 1736.04   1
  -7   2  -1 28480.4 2038.75   3
  -7   2  -2 80883.8 3937.23   3
   7  -2  -2 81650.4 3006.79   1
   7   2   2 83189.4 2961.20   4
   7  -2  -2 89440.7 3058.58   7
  -7  -2   2 88009.2 3507.77   4
   7  -2  -2 89179.5 3305.24   2
  -7  -2   2 83535.8 3503.54   2
  -7   2  -2 85573.7 3308.93   6
   7  -2  -2 84900.7 1978.75   4
   7   2   2 81254.6 3289.49   5
   7  -2  -2 85911.8 3084.15   5
   7  -2  -3 9853.51 1367.17   7
  -7   2  -3 8669.32 1184.43   6
  -7  -2   3 10666.1 1400.46   4
  -7   2  -3 10820.0 1869.05   3
   7   2   3 10917.1 1276.92   4
   7  -2  -3 9221.12 1263.83   2
   7  -2  -3 11136.8 1329.58   1
  -7  -2   3 8618.67 1349.49   2
   7   2   3 12121.0 1551.96   5
   7  -2  -3 10370.5 1321.28   5
  -7  -2   3 9408.16 772.188   5
   7  -2  -4 31651.0 2384.20   2
   7   2   4 34581.4 2372.49   4
  -7  -2   4 31858.8 2733.23   4
   7  -2  -4 29743.7 2230.29   1
   7  -2  -4 30188.6 2641.84   7
  -7  -2   4 27583.7 2480.26   2
   7  -2  -4 29082.2 2461.19   5
  -7  -2   4 31428.1 1795.95   5
   7  -2  -5 10948.8 1799.05   5
  -7  -2   5 8748.99 1647.15   2
   7  -2  -5 8403.37 1469.85   2
   7   2   5 10198.5 1532.87   4
   7  -2  -5 9527.06 1798.48   7
  -7  -2   5 10926.8 1355.25   5
  -7  -2   6 5607.13 1180.48   2
   7  -2  -6 6157.12 1516.54   5
   7   2   6 5340.55 1331.57   4
   7  -2  -6 4389.48 1324.79   7
   7  -2  -7-2533.17 1434.25   5
  -7  -2   7-2224.10 937.765   2
   7   2   7 1162.16 778.045   1
   7   2   7 881.587 840.110   4
   7   3  -7 5067.82 1968.95   7
  -7   3   7 4172.23 1369.45   1
   7  -3   7 2913.24 1676.93   4
  -7  -3  -7 2899.34 1370.46   5
   7   3  -6 7063.37 1560.07   7
  -7   3   6 5094.10 1378.84   1
  -7  -3  -6 7533.66 1546.69   5
  -7   3   6 3380.94 917.861   6
   7  -3   6 5511.76 1611.20   4
   7   3  -5 14563.7 2273.97   7
  -7   3   5 15536.2 1966.26   1
  -7  -3  -5 15360.3 2248.75   5
   7  -3   5 14530.5 2336.41   4
  -7   3   5 14265.4 1638.10   6
  -7  -3  -4 4813.85 1299.32   5
  -7   3   4 5809.94 1193.51   1
   7   3  -4 5689.73 1444.69   7
  -7   3   4 5478.41 1182.16   6
   7  -3   4 5917.03 1608.49   4
  -7  -3  -4 5185.80 1050.94   4
   7  -3   4 6035.09 1374.81   6
   7  -3   4 6469.51 1101.51   7
  -7  -3  -3 2750.95 899.019   5
  -7   3   3 4598.45 984.852   1
   7  -3   3 4522.32 1127.84   3
  -7  -3  -3 5270.89 1315.27   3
  -7   3   3 3731.73 909.852   6
   7  -3   3 3399.71 1140.47   4
  -7  -3  -3 4393.68 885.394   4
  -7  -3  -3 4272.77 380.974   6
  -7   3   3 4008.35 857.386   7
   7  -3   3 5076.76 1148.46   6
   7   3  -3 3843.02 997.164   7
   7  -3   3 4625.81 761.819   7
  -7  -3  -2 9270.19 1308.43   3
   7  -3   2 8749.03 1297.47   4
  -7  -3  -2 7796.82 1047.06   4
   7  -3   2 8515.81 738.374   7
   7   3  -2 9529.07 1220.47   7
  -7   3   2 8620.51 1002.60   7
  -7  -3  -2 8276.05 796.092   2
  -7   3   2 8530.19 1178.78   6
   7  -3   2 9203.01 1302.54   6
  -7  -3  -2 7315.48 1123.09   5
  -7   3   1 19020.5 1702.59   6
  -7  -3  -1 17542.2 1448.30   4
  -7   3   1 19132.0 1041.77   7
  -7  -3  -1 19022.4 1383.88   2
   7  -3   1 19913.9 1663.14   4
  -7  -3  -1 18670.7 1375.26   5
   7  -3   0 55010.3 2357.14   1
   7  -3   0 55201.7 2264.39   4
  -7  -3   0 54687.6 2564.65   4
   7   3   0 44787.4 2583.20   4
  -7   3   0 52561.3 2776.86   6
  -7  -3   0 53733.6 2585.40   2
  -7  -3   0 50049.1 1652.56   5
   7   3   0 54650.7 1633.27   5
  -7   3  -1 20752.5 1785.96   3
  -7  -3   1 20570.1 1701.02   4
   7  -3  -1 19418.4 1509.57   1
   7  -3  -1 20412.2 1099.54   4
   7   3   1 22354.1 1668.91   4
  -7   3  -1 19601.1 1794.16   6
  -7  -3   1 20469.7 1787.17   2
   7  -3  -1 18483.5 1661.41   6
   7   3   1 19508.3 1387.96   5
   7  -3  -2 8233.82 1143.33   1
  -7   3  -2 8948.17 1461.42   3
   7  -3  -2 7844.24 487.130   4
   7  -3  -2 8318.63 1139.46   2
  -7   3  -2 9643.03 1369.05   6
  -7  -3   2 9243.77 1379.55   2
  -7  -3   2 5890.73 1097.22   4
   7   3   2 8999.46 1197.52   5
   7  -3  -2 9036.92 1185.54   5
   7   3   2 8631.05 1130.65   4
   7  -3  -3 4192.35 909.517   2
   7   3   3 4133.86 1090.82   5
   7  -3  -3 3214.94 988.159   5
  -7   3  -3 184.689 945.507   3
   7  -3  -3 3473.88 907.873   7
  -7  -3   3 2622.22 998.098   2
   7   3   3 3816.38 895.453   4
   7  -3  -3 4316.26 957.880   1
  -7  -3   3 4147.73 1005.78   4
  -7  -3   3 4756.72 441.440   5
   7  -3  -4 7513.19 1535.92   5
   7  -3  -4 5182.35 1153.11   2
   7  -3  -4 6955.10 1474.77   7
  -7  -3   4 6943.39 1496.15   2
   7   3   4 5016.69 1091.42   4
  -7  -3   4 5983.09 820.760   5
   7   3   5 15006.2 1759.48   4
  -7  -3   5 12753.7 2067.87   2
   7  -3  -5 17037.5 2358.75   5
  -7  -3   5 17885.5 1601.18   5
   7  -3  -6 5164.74 1623.79   5
  -7  -3   6 5819.48 1500.50   2
   7   3   6 4916.92 1111.95   4
   7  -3  -7 2333.09 1271.46   5
  -7  -3   7 3308.77 1132.59   2
   7   3   7 4107.92 1575.43   1
  -7  -4  -6 1853.14 1163.52   5
  -7   4   6 826.644 801.411   1
   7  -4   6 1143.40 1397.64   4
   7   4  -6 1615.85 1188.06   7
  -7  -4  -5 3021.73 1206.19   5
   7  -4   5 2422.95 1226.82   4
  -7   4   5 4514.46 984.800   6
   7   4  -5 4030.55 1427.15   7
  -7   4   5 2344.34 1105.54   1
  -7  -4  -4 21049.7 2500.26   5
   7  -4   4 23412.9 2700.25   4
  -7  -4  -4 24364.2 2034.08   4
  -7   4   4 24141.9 2157.95   6
  -7   4   4 21777.3 2259.11   1
   7  -4   4 26835.3 1974.20   7
   7   4  -4 22972.1 2568.28   7
   7  -4   3 17746.3 2222.17   3
  -7  -4  -3 18549.1 2143.27   3
   7   4  -3 16614.8 1907.13   7
   7  -4   3 17542.9 2222.24   4
  -7  -4  -3 17249.5 1636.42   4
  -7   4   3 17585.7 1783.41   7
   7  -4   3 16453.5 1298.14   7
  -7  -4  -3 17702.4 1056.82   6
  -7  -4  -3 15527.8 1019.72   2
  -7   4   3 18760.4 1899.73   6
  -7   4   3 17340.6 1851.27   1
  -7  -4  -3 17151.6 2002.69   5
  -7  -4  -2 231.409 551.706   5
  -7  -4  -2 282.472 472.857   3
  -7   4   2-853.665 485.120   7
   7  -4   2 39.8033 625.987   4
   7   4  -2 183.588 642.363   7
  -7  -4  -2-32.7299 209.598   4
   7  -4   2-150.362 616.078   6
  -7   4   2 358.959 394.665   6
  -7  -4  -2-109.280 349.897   2
  -7   4   2-487.864 593.302   1
   7  -4   1 13752.1 1547.98   4
  -7  -4  -1 12787.2 1345.24   4
  -7   4   1 14204.2 1648.04   6
   7  -4   1 14172.6 1294.47   1
  -7   4   1 11827.6 900.624   7
  -7  -4  -1 13633.3 1312.47   5
  -7   4   0 7000.78 935.754   3
   7  -4   0 8485.48 1054.48   4
   7  -4   0 7846.23 1072.48   1
  -7  -4   0 8082.94 805.493   5
  -7   4   0 7956.30 1299.68   6
  -7  -4   0 7900.60 1128.18   4
   7   4   0 8746.97 1353.37   4
  -7   4  -1 12759.2 1550.72   3
   7  -4  -1 12827.1 1422.05   1
   7  -4  -1 11383.5 962.350   4
   7  -4  -1 13581.9 1469.99   2
   7   4   1 13629.4 1531.97   4
  -7  -4   1 15054.1 1645.97   4
  -7   4  -1 14638.8 1756.84   6
   7  -4  -1 14796.1 1642.44   6
  -7  -4   1 13660.8 1700.68   2
   7   4   1 12491.8 1178.35   5
   7  -4  -2-52.9378 592.982   1
   7   4   2-829.454 534.934   5
  -7   4  -2 253.897 280.532   7
   7  -4  -2-395.016 563.669   5
  -7   4  -2 289.238 573.829   3
  -7  -4   2 27.1856 724.277   2
   7  -4  -2 151.052 101.415   4
   7  -4  -2-24.7479 458.654   2
   7   4   2 8.11480 515.746   4
  -7   4  -2 39.0151 481.235   6
  -7  -4   2-784.185 579.845   4
   7   4   3 13641.6 1498.61   4
  -7   4  -3 18958.8 1510.33   7
   7  -4  -3 19815.9 1881.04   2
  -7  -4   3 17583.9 2143.26   2
   7  -4  -3 16091.9 1933.12   5
   7   4   4 23808.9 1990.59   4
  -7  -4   4 22943.8 2584.44   2
  -7   4  -4 20253.0 1950.74   7
   7  -4  -4 19980.0 2403.83   5
  -7  -4   4 25188.0 1272.47   5
   7  -4  -5 4143.70 1199.48   5
  -7  -4   5 4172.78 1205.75   2
   7   4   5 2516.69 763.763   4
  -7   4  -5 1660.30 816.097   7
   7  -4  -6 670.856 950.745   5
   7   4   6 973.564 1094.56   1
  -7  -4   6 5.00034 1066.40   2
  -7  -5  -6 3855.07 1386.66   5
  -7   5   6 2322.00 1085.15   1
   7   5  -6 688.068 1162.50   7
   7  -5   6 688.925 1469.45   4
  -7  -5  -5-745.963 891.756   5
  -7   5   5-1696.40 997.011   1
   7  -5   5 765.096 894.430   4
   7   5  -5-937.774 947.758   7
  -7   5   5-85.2524 617.026   6
  -7  -5  -4 2121.83 967.816   5
  -7   5   4 377.874 871.128   1
  -7  -5  -4 994.934 272.332   2
   7  -5   4 1546.01 1115.10   4
  -7  -5  -4 235.886 575.622   4
   7   5  -4 1111.34 938.902   7
   7  -5   4 855.179 588.858   7
  -7   5   4 2018.48 858.022   6
   7  -5   4 1325.42 444.850   1
  -7  -5  -3 7127.47 1474.19   5
  -7  -5  -3 8692.52 1527.92   3
   7  -5   3 8331.85 1081.07   1
  -7   5   3 8383.53 1263.02   7
   7   5  -3 8689.85 1509.90   7
  -7  -5  -3 8556.22 1000.24   6
  -7   5   3 8878.19 1479.88   6
  -7  -5  -3 7684.99 983.164   2
   7  -5   3 7073.22 1680.62   4
  -7   5   3 8537.10 1400.50   1
  -7  -5  -3 8480.22 1216.81   4
   7   5  -2 12265.9 903.536   1
  -7  -5  -2 12299.7 1497.02   3
  -7  -5  -2 14194.5 1486.75   4
   7  -5   2 14478.6 1440.75   1
  -7   5   2 12234.3 1316.08   7
   7   5  -2 13610.7 1720.16   7
   7  -5   2 11104.6 1735.27   4
  -7  -5  -2 10892.5 1306.98   6
  -7   5   2 11925.3 1670.49   6
  -7   5   2 11195.4 1536.04   1
  -7  -5  -2 12525.4 1596.47   5
  -7  -5  -1 7578.44 1114.26   5
   7  -5   1 10080.0 1499.25   4
   7  -5   1 8079.73 1124.67   1
  -7   5   1 7372.01 1347.95   6
  -7  -5  -1 8772.26 1192.85   4
  -7   5   1 7872.42 868.185   7
   7   5  -1 7142.63 904.105   1
  -7   5   1 9459.46 938.114   3
  -7   5   0 31028.2 1947.56   3
   7  -5   0 32723.0 2264.44   1
   7  -5   0 32069.6 2156.42   4
  -7   5   0 30768.7 930.253   7
  -7   5   0 29504.2 2626.38   6
  -7  -5   0 30260.3 2389.81   4
  -7   5   0 33418.2 1093.64   7
  -7  -5   0 34672.2 1836.65   5
  -7   5  -1 8273.46 447.536   7
   7  -5  -1 7829.42 937.462   4
  -7   5  -1 8786.99 1380.74   3
   7  -5  -1 7702.28 1403.78   6
  -7   5  -1 9060.42 1594.25   6
  -7  -5   1 8775.29 682.014   5
   7   5   1 8056.27 1428.40   4
   7   5   1 8981.70 1098.84   5
  -7  -5   2 12527.7 1887.26   2
   7  -5  -2 12629.4 629.966   4
  -7   5  -2 13468.9 982.621   7
   7   5   2 11464.9 1561.08   4
   7  -5  -2 12476.8 701.302   4
  -7   5  -2 13263.0 1983.02   6
   7  -5  -2 13530.5 1731.46   6
   7   5   2 13617.9 1544.22   5
   7  -5  -2 12353.8 1697.43   5
   7  -5  -3 7876.13 1633.87   5
  -7  -5   3 7982.04 1666.55   2
  -7   5  -3 9087.67 1030.05   7
   7   5   3 7564.51 1254.28   4
   7  -5  -4 1329.15 1055.64   5
  -7   5  -4 704.033 552.276   7
   7   5   4 1676.20 740.127   4
  -7  -5   4 1396.36 933.967   2
   7  -5  -5-505.309 1019.87   5
   7   5   5 381.707 1059.66   1
  -7   5  -5 198.979 526.846   7
   7   5   5 628.815 657.590   4
  -7  -5   5-261.775 437.920   2
  -7  -5   6 387.730 1256.62   2
   7   5   6 1914.22 1051.17   1
  -7  -6  -5 2375.77 1127.25   5
   7   6  -5 4011.16 1302.93   7
  -7   6   5 1317.52 1092.40   1
   7  -6   5 4205.45 1626.60   4
  -7  -6  -4 3985.27 1284.96   5
  -7   6   4 4952.89 1501.26   1
   7  -6   4 3781.84 1483.60   4
   7   6  -4 5337.75 1380.80   7
  -7   6   4 3880.29 1098.34   6
  -7  -6  -3 3082.33 1119.74   5
  -7   6   3 4976.63 1211.48   1
   7  -6   3 6320.49 1649.88   4
   7   6  -3 5971.25 1314.82   7
  -7   6   3 3610.84 1325.34   6
  -7   6   3 5293.02 1050.79   7
   7  -6   3 4113.62 858.670   1
  -7  -6  -3 4845.93 998.389   4
  -7   6   2 11080.7 703.210   3
  -7  -6  -2 15634.6 1498.05   3
  -7  -6  -2 12083.2 1628.02   5
   7   6  -2 13505.6 1048.34   1
   7  -6   2 13050.9 1406.71   1
  -7  -6  -2 14860.9 1643.30   4
  -7   6   2 15100.5 1558.51   7
   7   6  -2 13114.6 1809.70   7
  -7   6   2 12127.6 1656.71   1
   7  -6   2 10744.7 1788.99   4
  -7  -6  -2 13396.5 1652.56   6
  -7   6   2 12701.0 1780.40   6
  -7  -6  -1 412.952 607.029   5
  -7   6   1 1883.54 474.221   7
  -7   6   1 944.619 292.586   3
   7  -6   1 1119.30 754.537   4
  -7  -6  -1 975.193 802.489   6
  -7   6   1 570.486 845.246   6
  -7  -6  -1 738.662 685.851   4
   7   6  -1 186.557 496.834   1
  -7  -6   0 1907.91 579.211   5
  -7   6   0 2913.08 399.581   7
  -7   6   0 2380.88 427.298   7
   7  -6   0 3611.82 939.534   4
   7   6   0 2101.32 767.542   1
  -7   6   0 2446.29 945.296   6
  -7  -6   1 695.888 403.059   5
  -7   6  -1 711.202 227.248   7
   7  -6  -1 448.850 442.892   4
  -7   6  -1 472.364 854.053   6
   7   6   1 1555.99 757.741   1
   7  -6  -2 11865.7 1821.82   5
   7  -6  -2 13966.6 815.793   4
  -7   6  -2 14876.6 1053.33   7
   7  -6  -2 14233.7 858.444   4
   7   6   2 14537.2 1837.08   1
   7  -6  -3 3421.24 1168.87   5
   7   6   3 4494.88 1315.76   1
  -7  -6   3 6320.16 1573.80   2
  -7   6  -3 6720.42 956.178   7
   7   6   3 5202.62 1317.82   4
   7  -6  -4 4877.33 1441.08   5
  -7   6  -4 2763.23 771.134   7
   7   6   4 6522.63 1594.70   1
   7   6   4 2612.43 1040.18   4
  -7  -6   4 3612.02 1256.93   2
   7  -6  -5 2540.41 1362.34   5
  -7  -6   5 3868.17 1550.47   2
   7   6   5 1633.52 1324.00   1
  -7  -7  -4 3623.22 1120.56   5
  -7   7   4-223.092 1101.52   1
  -7   7   4 733.638 649.692   6
   7  -7   4 667.164 1150.70   4
  -7  -7  -3 2154.77 844.323   5
  -7   7   3 3201.11 1265.11   1
   7  -7   3 1544.93 1185.31   4
   7   7  -3 5564.26 1334.47   7
  -7   7   3 3083.43 1157.19   6
  -7  -7  -2 3711.79 995.961   5
  -7   7   2 4361.50 1350.32   6
   7   7  -2 4288.92 711.961   1
   7  -7   2 5954.72 1508.08   4
   7   7  -2 2960.92 1053.37   7
  -7   7   2 4536.46 1264.53   1
  -7  -7  -1 3260.57 963.634   5
  -7  -7  -1 4103.08 665.694   3
   7   7  -1 2801.55 785.804   1
   7  -7   1 3203.28 1056.74   4
  -7   7   1 2947.57 1060.63   6
  -7  -7   0 204.788 446.307   5
   7  -7   0-267.892 700.000   4
  -7   7   0 474.413 730.974   6
  -7   7   0 91.1235 259.618   7
   7   7   0 192.242 624.743   1
  -7  -7   1 3291.80 624.832   5
   7  -7  -1 3434.12 1149.92   5
   7  -7  -1 4530.07 938.467   4
  -7   7  -1 4566.60 535.744   7
   7   7   1 4150.45 1172.07   1
   7  -7  -2 4940.07 1348.34   5
   7   7   2 3436.72 1015.58   1
   7  -7  -3 2551.11 1106.67   5
   7   7   3 3600.99 1101.44   1
  -7  -7   3 1525.43 1466.62   2
   7  -7  -4 246.462 1100.85   5
  -7  -7   4 982.162 763.436   2
   7   7   4-734.397 1091.78   1
  -7  -8  -3-1996.59 1119.41   5
   7   8  -3 2414.15 842.760   7
  -7   8   3-637.137 855.667   1
   7  -8   3 1412.67 1166.36   4
  -7  -8  -2 3745.17 950.892   5
   7  -8   2 3556.01 1446.70   4
   7   8  -2 4691.02 1299.01   7
  -7  -8  -1 5816.32 1230.23   5
   7  -8   1 5619.29 1526.48   4
   7   8  -1 3845.15 982.804   1
  -7  -8   0 32.3505 662.952   5
   7   8   0 1226.83 724.098   1
   7  -8   0 1067.89 765.967   4
   7   8   1 5946.58 1433.39   1
   7  -8  -1 4432.84 1311.74   5
   7  -8  -2 5107.51 1387.19   5
   7   8   2 3633.95 1266.08   1
   7  -8  -3 1554.55 1194.53   5
  -7  -8   3-612.033 852.189   2
   7   8   3 1502.57 1056.83   1
  -7  -9  -2-21.5017 1022.38   5
   7  -9   2 2016.81 1401.34   4
   7   9  -2 1911.38 1122.71   7
   7  -9   1 2865.65 1471.82   4
   7   9  -1 3729.09 1379.83   7
   7  -9   0 2923.41 1178.25   5
   7   9   0 3606.22 1104.29   1
   7  -9  -1 1780.91 1331.88   5
   7   9   1 2363.40 1217.57   1
   7  -9  -2 2070.91 835.774   5
   7   9   2 422.367 1010.33   1
   8   0   0 17641.9 1251.13   2
  -8   0   0 15640.7 1180.00   2
  -8   0   0 18078.4 1266.27   4
   8   0   1 1079.42 376.324   2
  -8   0   1 1022.27 491.947   2
  -8   0  -1 628.794 312.455   2
  -8   0  -1 1397.56 521.519   4
   8   0  -1 2213.98 488.461   7
  -8   0   1 1193.98 380.515   4
  -8   0  -1 615.654 389.189   6
   8   0  -1 926.402 414.543   4
  -8   0   2 488290. 6853.97   7
  -8   0  -2 471549. 7776.41   4
  -8   0   2 456503. 6298.39   4
   8   0  -2 458317. 5744.42   1
   8   0  -2 453708. 7069.71   7
   8   0   2 458461. 5109.61   2
  -8   0  -2 441064. 6044.89   6
   8   0  -2 442568. 6896.29   4
  -8   0   2 448686. 7489.58   2
   8   0  -2 433520. 5543.54   5
   8   0  -3 12412.0 1111.61   1
  -8   0  -3 15679.8 1669.01   4
   8   0   3 14910.7 1628.24   4
   8   0   3 13612.1 1373.88   7
  -8   0   3 12748.1 1245.57   4
  -8   0   3 12695.1 1373.73   7
   8   0  -3 12150.0 1514.38   7
   8   0  -3 12716.6 1488.31   2
  -8   0  -3 11930.0 1045.91   6
  -8   0   3 10701.4 1393.14   2
   8   0  -3 11510.6 1210.41   5
   8   0   3 13731.5 852.487   2
  -8   0   4 5526.05 1189.36   2
   8   0  -4 6280.44 1112.15   5
  -8   0  -4 6548.05 1629.18   3
   8   0   4 6253.59 544.186   2
   8   0  -4 4096.56 1190.92   7
   8   0   4 5410.85 1221.72   4
   8   0  -4 6560.10 1267.00   2
   8   0  -4 5234.82 845.206   1
   8   0   4 5619.14 1160.96   7
  -8   0   4 5954.05 1052.93   4
  -8   0   5-30.7981 643.493   2
   8   0  -5-103.971 873.424   5
   8   0   5 131.112 155.938   2
   8   0  -5 379.621 1010.61   7
   8   0   5 16.2818 144.889   2
  -8   0   5-529.227 448.229   4
   8   0   5-361.175 924.563   4
   8   0   6 15212.7 2236.90   4
  -8   0   6 13862.8 1980.68   2
   8   0  -6 12929.2 2426.38   7
   8   0  -6 14947.7 2122.91   5
   8   0  -7 3220.16 1311.76   5
   8   0  -7 2155.42 1345.08   7
   8   0   7 3083.36 1166.54   4
  -8   0   7 1774.80 920.417   2
   8   1  -7 617.431 1109.15   7
   8  -1   7 1239.06 1029.31   4
  -8   1   7 1058.04 592.024   2
   8   1  -7 790.290 687.868   5
   8   1  -6 8463.25 1632.67   5
   8   1  -6 6613.33 1805.03   7
   8  -1   6 10428.1 1941.81   4
  -8   1   6 7971.90 1487.63   2
   8  -1   5 47992.6 2603.20   6
   8  -1   5 47036.3 3521.57   4
   8   1  -5 49498.5 3909.71   7
  -8   1   5 44679.5 2487.05   4
  -8   1   5 45926.1 3114.34   2
   8   1  -5 50345.0 3069.57   5
  -8  -1  -4 12407.6 1598.62   4
  -8  -1  -4 12234.8 2181.20   3
   8  -1   4 9893.45 1606.42   4
  -8   1   4 11496.2 1169.19   4
  -8   1   4 11997.8 1569.80   2
   8  -1   4 9970.95 1228.74   6
   8  -1   4 14445.7 1650.67   7
   8   1  -4 10822.7 1643.87   2
   8   1  -4 10858.0 1278.21   5
   8   1  -4 8829.55 1565.28   7
  -8  -1  -3 51057.3 3563.62   3
  -8   1   3 49971.2 2758.44   2
   8   1  -3 48706.0 1814.17   1
  -8  -1  -3 48880.3 2807.91   4
   8  -1   3 48298.5 2876.23   4
  -8   1   3 48403.9 2010.61   4
   8  -1   3 48938.1 2494.03   7
  -8   1   3 50285.7 2614.76   7
  -8  -1  -3 47411.3 1629.70   6
   8  -1   3 44212.9 2323.19   6
   8   1  -3 50053.4 2958.19   2
   8   1  -3 49133.3 2869.46   7
   8   1  -3 45960.7 2077.14   5
  -8  -1  -2 62206.9 3273.23   3
   8   1  -2 62435.2 2706.92   7
  -8  -1  -2 66019.2 2883.83   4
  -8   1   2 59661.3 2039.33   4
   8  -1   2 64037.7 2185.08   2
   8  -1   2 56532.0 2141.25   7
  -8   1   2 65591.0 2846.03   2
   8  -1   2 61779.8 2632.49   6
  -8  -1  -2 61719.2 2119.88   6
  -8   1   2 66577.0 2449.98   7
   8   1  -2 60942.6 1815.24   5
  -8  -1  -1 16161.1 1334.58   4
  -8   1   1 16851.7 1113.99   4
   8  -1   1 14677.7 1114.46   2
  -8   1   1 13791.5 1256.02   2
   8   1  -1 11983.1 1156.41   7
  -8   1   1 14278.5 973.845   7
  -8  -1  -1 15663.4 1038.93   2
  -8   1   0 5041.48 710.586   4
   8  -1   0 5112.40 727.585   4
  -8   1   0 5666.62 792.722   2
  -8  -1   0 5192.14 773.816   2
  -8  -1   0 4664.27 704.121   4
   8   1   0 5330.04 772.900   2
  -8   1   0 4331.80 807.418   6
  -8  -1   1 14966.5 1249.07   4
   8  -1  -1 15726.3 1088.28   4
   8  -1  -1 14281.6 1018.38   7
  -8  -1   1 14014.7 1322.50   2
  -8   1  -1 17354.7 1425.54   4
   8   1   1 14271.9 1048.43   2
  -8   1  -1 16105.6 1365.75   6
   8   1   1 16806.5 1235.04   5
   8  -1  -2 58475.5 2788.40   2
  -8   1  -2 60721.1 2966.27   4
  -8   1  -2 55714.6 2462.69   6
   8  -1  -2 63309.9 2435.19   1
   8   1   2 62522.3 2688.65   4
  -8  -1   2 55344.1 2838.21   2
   8   1   2 63751.0 1739.68   2
   8   1   2 61790.8 2860.25   5
   8  -1  -2 62983.4 2240.70   4
   8  -1  -2 66494.0 2711.62   7
  -8  -1   2 59106.0 2598.84   4
   8  -1  -2 57740.5 2336.92   5
   8  -1  -3 47874.8 2775.47   2
   8  -1  -3 48166.0 2352.87   1
   8   1   3 48697.3 2662.17   4
   8  -1  -3 47496.6 2794.59   7
  -8  -1   3 43594.8 2756.39   2
  -8   1  -3 48053.6 2372.87   6
   8   1   3 54677.4 3081.05   5
  -8  -1   3 47131.4 2648.08   4
   8  -1  -3 48385.5 2509.77   5
   8   1   4 10759.8 1557.35   4
  -8   1  -4 5101.77 1765.03   3
   8  -1  -4 12400.0 1603.75   2
  -8  -1   4 10093.2 1481.08   4
  -8  -1   4 11271.9 1611.57   2
   8  -1  -4 11836.6 1785.15   7
   8  -1  -4 12227.1 1325.85   1
   8  -1  -4 10404.3 1495.18   5
   8   1   5 45267.2 3204.14   4
   8  -1  -5 42425.6 3656.41   7
  -8  -1   5 43440.3 3259.40   2
   8  -1  -5 46343.2 3356.18   5
  -8  -1   5 46365.4 2734.56   5
   8  -1  -6 8901.13 1893.52   5
  -8  -1   6 5809.39 1524.26   2
   8   1   6 9349.17 1780.56   4
   8  -1  -6 9488.41 2147.67   7
  -8  -1   7 5155.41 1330.48   2
   8  -1  -7 3462.43 1322.43   7
   8   1   7 3413.37 1243.84   4
  -8   2   7 5255.28 1166.60   1
   8   2  -7 4839.98 1670.19   7
   8  -2   7 6527.00 1879.43   4
   8  -2   6 884.536 566.028   2
   8   2  -6-382.796 944.027   7
   8  -2   6-2648.19 1335.69   4
  -8   2   6 137.582 638.190   1
  -8   2   6-537.686 642.682   2
  -8   2   6 289.563 624.996   6
   8   2  -6 126.289 730.606   5
  -8  -2  -6 817.286 955.874   5
  -8   2   5 1589.35 771.496   2
  -8   2   5 907.424 725.017   1
   8  -2   5 1795.35 1074.56   4
   8  -2   5 1245.48 801.244   6
  -8   2   5 1694.24 452.610   4
   8   2  -5 768.180 798.986   7
  -8  -2  -5 971.592 1010.34   5
   8   2  -5 1425.59 704.835   5
  -8  -2  -4 21035.8 2035.19   4
   8  -2   4 18638.9 2238.41   4
  -8  -2  -4 18141.5 2658.61   3
  -8   2   4 18271.7 1126.78   4
   8  -2   4 20758.9 1932.43   6
  -8   2   4 18368.1 1840.03   2
   8   2  -4 18005.0 2178.88   7
  -8  -2  -4 17079.0 2094.41   5
  -8   2   4 18726.3 1769.18   1
   8  -2   4 22433.8 1990.98   7
   8   2  -4 18291.0 1458.21   5
  -8  -2  -3 34445.9 2959.29   3
   8   2  -3 35190.6 1264.92   1
   8  -2   3 35877.2 2635.43   4
  -8  -2  -3 38861.7 2463.43   4
  -8   2   3 36742.1 1380.12   4
  -8   2   3 32410.9 2226.27   2
   8  -2   3 35878.3 2094.46   7
   8   2  -3 43545.9 2755.17   7
  -8  -2  -3 36992.8 1201.59   6
   8  -2   3 37804.1 2434.54   6
   8  -2   3 38209.8 2641.11   5
  -8  -2  -3 39299.7 2692.19   5
   8   2  -3 39228.5 1592.14   5
  -8   2   3 37852.3 2334.16   7
  -8  -2  -2 25589.2 2230.75   3
   8  -2   2 30024.0 1507.94   7
  -8   2   2 30708.5 2139.85   6
  -8  -2  -2 31130.2 2049.26   4
  -8   2   2 29239.4 1276.35   4
  -8   2   2 30820.1 1712.93   7
   8   2  -2 31360.5 2053.98   7
  -8  -2  -2 31619.0 1231.98   2
   8  -2   2 30796.1 2108.10   6
  -8   2   2 31764.4 2021.44   2
  -8  -2  -2 27028.0 1942.18   5
   8   2  -2 28426.4 854.881   5
  -8   2   1 227720. 3941.67   4
   8  -2   1 238793. 5234.98   4
  -8  -2  -1 242453. 5155.71   4
  -8   2   1 240216. 3395.44   7
  -8  -2  -1 233698. 4231.69   2
  -8   2   1 238916. 5559.09   6
   8  -2   1 231338. 2659.24   7
  -8  -2   0 99816.9 3217.12   2
  -8   2   0 100480. 3061.37   4
   8  -2   0 94329.3 2853.59   4
  -8  -2   0 99932.0 3314.69   4
   8  -2   0 100129. 1533.52   7
  -8   2   0 102329. 3601.95   6
   8   2   0 99517.0 3269.58   2
   8   2   0 102920. 2347.26   5
  -8   2  -1 238423. 5445.17   4
   8  -2  -1 231646. 3793.37   4
  -8  -2   1 243286. 5336.75   4
   8  -2  -1 249983. 3934.36   7
   8  -2  -1 247169. 4916.34   1
  -8  -2   1 232115. 5439.93   2
  -8   2  -1 227211. 5395.03   6
   8   2   1 238402. 5080.29   4
   8   2   1 230715. 4598.38   5
  -8   2  -1 237623. 5897.84   3
  -8   2  -2 30091.4 2563.84   3
   8  -2  -2 32246.8 1949.66   1
   8   2   2 31544.1 1978.12   4
  -8  -2   2 30880.9 2134.26   4
   8  -2  -2 28196.0 2051.08   2
  -8  -2   2 27192.2 2145.13   2
  -8   2  -2 30887.8 2089.68   6
   8  -2  -2 29910.7 1871.34   7
   8  -2  -2 29397.0 1310.76   4
   8   2   2 32580.2 2159.02   5
   8  -2  -2 31332.8 1952.36   5
   8  -2  -3 38362.9 2371.80   1
  -8   2  -3 37034.4 3325.30   3
   8   2   3 37373.4 2274.94   4
  -8  -2   3 32228.6 2498.08   4
  -8  -2   3 33939.0 2578.17   2
  -8   2  -3 36067.7 2390.40   6
   8  -2  -3 36618.0 2495.39   7
   8  -2  -3 37076.8 2489.87   2
   8   2   3 38071.7 2674.71   5
   8  -2  -3 35081.6 2377.78   5
  -8  -2   4 18465.4 2152.03   2
   8   2   4 18504.0 1854.77   4
   8  -2  -4 16190.9 1963.27   7
   8  -2  -4 17610.4 1881.62   2
   8  -2  -4 19351.4 1826.19   1
   8  -2  -4 18336.9 2048.88   5
  -8  -2   4 19894.4 1408.76   5
   8  -2  -5 330.433 760.983   5
  -8  -2   5 241.952 700.953   5
  -8  -2   5 3104.15 1088.95   2
   8  -2  -5-158.738 1082.71   7
   8   2   5 1141.97 855.817   4
   8  -2  -6 992.916 1138.94   5
  -8  -2   6 610.804 949.599   2
   8  -2  -6 271.861 1247.08   7
   8   2   6-424.093 1015.69   4
   8  -2  -7 1367.52 1390.19   5
  -8  -2   7 6083.76 1595.74   2
   8  -2  -7 5205.05 1835.22   7
   8   2   7 5289.40 1444.20   4
   8  -3   6 659.651 1442.98   4
   8   3  -6 972.213 732.590   7
  -8   3   6 2303.12 814.989   6
  -8   3   6 1077.56 977.327   1
  -8  -3  -6 261.774 889.990   5
  -8  -3  -5 2088.00 1090.16   5
  -8   3   5 3302.75 1163.51   1
   8  -3   5 4631.65 1400.50   4
   8   3  -5 2887.32 1301.80   7
  -8   3   5 2275.17 894.810   6
  -8  -3  -4 73440.6 4842.27   3
   8  -3   4 67978.8 4279.21   4
  -8  -3  -4 70830.7 3581.77   4
   8  -3   4 63853.1 3160.69   7
  -8   3   4 66052.0 3432.19   1
  -8   3   4 68276.2 3582.71   6
   8  -3   4 66273.1 3751.40   6
  -8  -3  -4 66458.8 4052.93   5
   8   3  -4 71556.8 4215.95   7
  -8  -3  -3 7931.59 1361.32   5
   8   3  -3 6544.66 375.860   1
  -8   3   3 7285.11 1170.10   1
   8  -3   3 6538.42 909.568   7
  -8  -3  -3 7126.06 1442.85   3
  -8  -3  -3 9118.46 1238.98   4
   8   3  -3 7431.45 1283.61   7
   8  -3   3 6619.21 1345.42   4
  -8   3   3 7428.22 1163.46   7
   8  -3   3 8443.35 1346.14   6
  -8   3   3 7945.36 1273.80   6
  -8  -3  -2 6337.59 1208.34   3
  -8  -3  -2 8251.61 1131.77   4
  -8   3   2 6610.15 886.918   7
   8  -3   2 7912.18 700.523   7
  -8  -3  -2 8829.61 831.966   2
   8   3  -2 7521.83 1168.27   7
   8  -3   2 8456.82 1310.73   4
   8  -3   2 7495.94 1229.25   6
  -8   3   2 6858.34 1117.65   6
  -8  -3  -2 7928.04 1163.96   5
  -8  -3  -1 1196.62 473.873   5
   8  -3   1 1890.33 654.866   4
  -8  -3  -1 1670.23 545.513   2
  -8   3   1 1775.52 350.121   7
  -8  -3  -1 2278.82 654.586   4
  -8   3   1 2213.48 752.200   6
   8  -3   0 131134. 3578.52   4
  -8  -3   0 132806. 4102.69   4
  -8   3   0 128796. 4455.42   6
  -8  -3   0 124160. 3929.48   2
   8  -3   0 123353. 3646.53   1
   8   3   0 122599. 2536.10   5
   8   3   1 1563.96 532.200   5
  -8   3  -1 1370.18 621.526   3
  -8  -3   1 1101.17 718.708   2
   8  -3  -1 1517.16 514.754   1
   8  -3  -1 2013.80 468.333   4
  -8   3  -1 2041.28 745.817   6
   8   3   1 1940.75 741.959   4
  -8  -3   1 1529.79 541.496   4
   8  -3  -2 7536.43 1169.62   5
  -8   3  -2 8591.41 1564.15   3
  -8  -3   2 6768.54 1239.97   2
   8  -3  -2 8130.63 964.717   7
   8  -3  -2 6999.15 1106.24   1
  -8   3  -2 7860.35 1221.26   6
   8  -3  -2 7852.10 594.841   4
   8  -3  -2 8022.38 1141.28   2
   8   3   2 7972.99 1132.55   4
  -8  -3   2 7658.47 1254.54   4
   8   3   2 7755.00 1127.62   5
   8   3   3 7417.54 1346.05   5
   8  -3  -3 6722.25 1260.88   5
  -8   3  -3 5624.69 1584.39   3
   8  -3  -3 7335.05 1181.00   7
  -8   3  -3 6333.13 1163.86   6
  -8  -3   3 4990.25 1196.93   2
   8   3   3 6630.55 1107.98   4
   8  -3  -3 9490.60 1336.99   2
   8  -3  -3 6826.93 1218.63   1
   8  -3  -4 62273.6 3618.02   2
   8   3   4 68723.0 3390.39   4
   8  -3  -4 67359.8 3905.17   7
  -8  -3   4 61856.8 3986.34   2
   8  -3  -4 65673.3 3901.63   5
  -8  -3   4 70704.0 2188.81   5
   8  -3  -5 3301.93 1201.17   5
  -8  -3   5 3698.94 1000.23   2
   8  -3  -5 3400.68 1350.17   7
   8   3   5 3965.11 1061.93   4
   8  -3  -6 2357.84 1024.20   5
  -8  -3   6 1931.54 1193.67   2
   8   3   6 1954.25 914.610   4
  -8  -4  -6 2547.32 1027.10   5
   8  -4   6 2019.97 1355.45   4
  -8   4   6 2778.74 1224.83   1
   8   4  -6 2243.07 1390.13   7
  -8  -4  -5 1760.62 841.807   5
   8  -4   5 464.036 1259.15   4
   8   4  -5-96.5723 1140.84   7
  -8   4   5 1986.82 767.757   6
  -8   4   5 2394.71 1136.20   1
  -8  -4  -4 3902.18 1261.07   5
   8   4  -4 3553.77 1348.31   7
  -8  -4  -4 492.350 1056.11   3
  -8  -4  -4 4363.93 819.948   4
   8  -4   4 5721.81 1554.51   4
  -8   4   4 5193.74 1347.50   1
  -8   4   4 4487.13 1136.22   6
   8  -4   4 5702.46 1008.89   7
  -8  -4  -3 19764.2 2316.35   3
   8   4  -3 19746.0 2152.44   7
   8  -4   3 21251.1 2432.49   4
  -8  -4  -3 20686.7 1889.60   4
  -8   4   3 22281.6 1959.77   7
   8  -4   3 20983.0 1410.93   7
  -8   4   3 20457.9 2015.71   1
  -8  -4  -3 21071.4 1185.79   2
  -8  -4  -3 21442.2 1256.50   6
  -8   4   3 20119.5 2058.09   6
  -8  -4  -3 19210.1 2178.10   5
  -8  -4  -2 17124.3 1836.39   3
   8  -4   2 18311.1 2030.63   4
  -8  -4  -2 20746.7 1768.68   4
  -8  -4  -2 20606.1 1487.32   2
  -8   4   2 17018.0 1406.60   7
   8   4  -2 18823.6 1825.34   7
  -8   4   2 19892.5 2005.51   6
  -8  -4  -2 20423.8 1877.08   5
  -8   4   1 41006.4 1518.13   7
   8  -4   1 42145.0 2595.26   4
  -8  -4  -1 39227.4 2453.23   4
  -8   4   1 39231.4 2761.28   6
   8  -4   1 39757.2 2251.10   1
  -8  -4  -1 40620.5 2327.19   2
  -8  -4  -1 40732.2 2197.84   5
  -8   4   0 101197. 3621.37   3
   8   4   0 108268. 4453.78   4
   8  -4   0 104442. 3461.82   4
   8  -4   0 103697. 3695.05   1
  -8   4   0 107812. 4448.04   6
  -8  -4   0 103405. 4043.25   2
  -8  -4   0 110484. 4092.23   4
  -8  -4   0 105015. 2673.83   5
   8   4   0 106336. 2430.27   5
  -8   4  -1 40406.6 2711.34   3
   8  -4  -1 44770.2 2581.19   1
  -8  -4   1 38907.9 2740.00   2
   8  -4  -1 39311.2 1758.72   4
   8  -4  -1 41161.4 2519.87   2
   8   4   1 40923.6 2618.90   4
   8  -4  -1 41324.9 2801.53   6
  -8   4  -1 38343.0 2823.66   6
  -8  -4   1 42413.1 2731.07   4
   8   4   1 39169.4 2056.39   5
  -8   4  -2 20183.6 2324.18   3
   8  -4  -2 19064.5 1848.76   2
   8  -4  -2 20552.8 852.357   4
   8   4   2 19900.9 1803.25   4
  -8   4  -2 20043.2 2124.94   6
  -8  -4   2 21252.8 2184.69   2
   8   4   2 20404.7 1828.76   5
   8  -4  -2 20637.2 1958.33   5
  -8  -4   3 19446.6 2314.09   2
   8   4   3 19259.1 1823.76   4
   8  -4  -3 22168.5 2248.72   5
   8   4   4 5618.99 1228.90   4
   8  -4  -4 5262.53 1431.63   5
  -8  -4   4 4234.66 1358.34   2
   8  -4  -5 557.101 1063.13   5
  -8  -4   5 1689.37 1044.24   2
   8   4   5 2533.04 766.129   4
   8  -4  -6 2853.07 1605.17   5
  -8  -4   6 5021.05 1371.70   2
  -8  -5  -6 4109.23 1739.84   5
   8  -5   6-715.017 1588.24   4
   8   5  -6 5081.86 1572.96   7
  -8   5   6 1944.07 1248.33   1
  -8  -5  -5 2999.93 1200.73   5
   8  -5   5 2415.33 1361.91   4
  -8   5   5 4908.62 1018.85   6
   8   5  -5 4306.64 1325.81   7
  -8   5   5 3803.47 1291.98   1
  -8  -5  -4 1815.40 972.191   5
   8  -5   4 169.223 813.615   4
   8   5  -4 1147.45 756.338   7
  -8  -5  -4 508.885 653.648   4
  -8   5   4 625.665 785.041   1
  -8   5   4 729.777 768.794   6
   8   5  -3 24104.2 2455.04   7
  -8  -5  -3 24076.1 2494.63   3
   8  -5   3 24318.7 2703.31   4
  -8  -5  -3 24938.2 2095.34   4
  -8   5   3 27361.5 2272.35   7
   8  -5   3 22936.3 1772.14   1
  -8   5   3 21707.9 2269.40   6
  -8  -5  -3 26035.6 1662.25   2
  -8   5   3 24326.2 2331.64   1
  -8  -5  -3 25812.2 1672.31   6
  -8  -5  -3 23279.9 2390.31   5
  -8  -5  -2 27882.4 2274.30   3
   8  -5   2 25796.8 2540.64   4
  -8  -5  -2 27022.1 2121.80   4
   8  -5   2 25362.1 1960.66   1
  -8   5   2 27198.2 1851.21   7
  -8  -5  -2 28442.4 2072.06   2
  -8   5   2 25545.6 2463.27   6
   8   5  -2 29678.0 2494.43   7
  -8  -5  -2 27836.5 2326.28   5
   8   5  -2 25552.0 1312.69   1
   8  -5   1 23396.8 2145.54   4
   8  -5   1 25866.3 1987.32   1
  -8  -5  -1 21441.5 1934.05   4
  -8   5   1 24657.3 1307.38   7
  -8   5   1 23128.9 2361.60   6
  -8  -5  -1 24460.9 1887.92   5
  -8  -5   0 445.627 414.610   5
  -8   5   0 525.086 465.264   3
   8  -5   0 649.470 547.115   1
   8  -5   0 928.518 489.697   4
  -8   5   0 1229.63 681.476   6
  -8  -5   0 1155.08 710.532   4
  -8   5  -1 23285.3 2226.77   3
   8  -5  -1 26113.5 1593.33   4
   8   5   1 17868.2 2155.29   4
  -8   5  -1 21596.3 2394.71   6
  -8  -5   1 22177.8 855.118   5
  -8  -5   1 24585.5 2476.32   2
   8   5   1 23936.6 1680.99   5
  -8  -5   2 29747.8 2847.35   2
   8  -5  -2 26191.2 997.311   4
   8   5   2 28345.0 2401.40   4
  -8   5  -2 22274.8 2512.25   6
   8   5   2 25334.2 2102.00   5
   8  -5  -2 27857.4 2430.90   5
  -8   5  -3 26364.0 1740.08   7
   8   5   3 24563.1 2195.66   4
  -8  -5   3 23753.2 2728.50   2
   8  -5  -3 23822.4 2439.38   5
   8  -5  -4-274.243 1027.17   5
  -8  -5   4-1772.05 1140.37   2
   8   5   4 639.016 672.002   4
  -8   5  -4 1048.75 571.445   7
   8  -5  -5 2755.43 1272.51   5
  -8  -5   5 4673.55 1264.52   2
   8   5   5 3231.03 927.577   4
   8  -5  -6 6363.11 1746.42   5
  -8  -5   6 5437.35 1562.27   2
   8   5   6 4028.34 1539.05   1
  -8  -6  -5-3620.49 1465.53   5
   8   6  -5-72.6462 967.708   7
   8  -6   5-2453.60 1624.30   4
  -8   6   5 515.378 1086.71   1
  -8  -6  -4 2502.25 1232.75   5
   8  -6   4 2670.11 1307.92   4
  -8   6   4 1868.49 1180.03   1
   8   6  -4 874.400 880.177   7
  -8   6   4 494.638 513.141   6
  -8  -6  -3 2502.04 978.987   5
   8   6  -3 1194.75 952.792   7
   8  -6   3 1111.52 639.465   1
  -8  -6  -3 1382.01 892.122   3
  -8   6   3 3412.29 914.901   7
  -8   6   3 2856.38 1117.54   6
   8  -6   3 1459.82 1284.67   4
  -8  -6  -3 2302.21 841.362   4
  -8  -6  -3 2085.06 714.156   2
  -8   6   3 1275.26 824.065   1
  -8  -6  -2 4438.67 1172.28   5
  -8  -6  -2 5369.54 1153.33   3
   8   6  -2 5267.57 734.902   1
   8  -6   2 6115.91 1504.20   4
  -8   6   2 5520.25 972.471   7
   8   6  -2 5817.63 1444.27   7
  -8  -6  -2 5766.59 1202.57   4
  -8  -6  -2 5730.90 1070.12   6
  -8   6   2 5491.24 1415.21   6
  -8   6   1 28346.1 1596.84   3
   8  -6   1 27660.3 2554.77   4
  -8   6   1 30012.2 1589.04   7
  -8   6   1 23037.1 2602.67   6
  -8  -6  -1 25622.4 2099.75   5
   8   6  -1 27029.1 1868.86   1
  -8   6   0 19535.7 1691.83   3
   8   6   0 16168.9 1646.04   1
   8  -6   0 17051.0 1772.92   4
  -8   6   0 16146.1 2286.87   6
  -8  -6   0 16571.3 1429.37   5
   8  -6  -1 28834.6 1874.02   4
  -8   6  -1 26954.5 2857.18   6
  -8  -6   1 30186.4 1359.18   5
   8  -6  -2 5935.90 603.355   4
   8  -6  -2 4980.84 1278.44   5
   8  -6  -2 5427.40 539.112   4
  -8   6  -2 6142.66 564.476   7
  -8  -6   2 5765.66 1500.15   2
   8   6   2 5344.16 1374.40   4
   8  -6  -3 632.580 911.449   5
  -8   6  -3 1800.27 530.013   7
  -8  -6   3 2879.18 1362.11   2
   8   6   3 499.126 845.711   4
   8  -6  -4 2957.01 1219.68   5
  -8   6  -4 1143.02 593.887   7
   8   6   4 667.912 1013.67   1
  -8  -6   4 1858.10 1127.19   2
   8   6   4 935.502 777.287   4
   8  -6  -5 1354.28 964.267   5
   8   6   5 915.014 721.909   1
  -8  -7  -4 4674.76 1405.36   5
   8  -7   4 4509.03 1813.28   4
   8   7  -4 3761.11 1375.25   7
  -8   7   4 6715.37 1664.00   1
  -8   7   4 6601.12 1499.04   6
  -8  -7  -3 5703.27 1417.94   5
   8  -7   3 6167.72 1862.47   4
  -8   7   3 5878.96 1457.31   1
  -8   7   3 4509.09 1550.10   6
   8   7  -3 3932.22 1252.27   7
  -8  -7  -3 5065.56 1181.31   2
  -8  -7  -2 13117.8 1915.61   5
   8   7  -2 15397.3 1291.75   1
   8   7  -2 16122.3 2084.43   7
   8  -7   2 14165.3 2345.42   4
  -8   7   2 13426.4 2203.96   6
  -8  -7  -1 775.603 596.184   5
   8   7  -1 610.240 467.503   1
   8  -7   1 1097.66 863.553   4
  -8   7   1 624.311 789.973   6
  -8  -7   0 3897.50 859.606   5
  -8   7   0 4799.65 1280.77   6
   8   7   0 4906.85 1030.97   1
   8  -7   0 3771.64 983.886   4
  -8  -7   1 661.266 253.030   5
   8  -7  -1 162.591 568.117   4
   8   7   1 1125.13 718.930   1
   8  -7  -2 15548.2 2303.47   5
  -8  -7   2 18510.2 2733.36   2
   8   7   2 16525.4 2207.93   1
   8  -7  -3 7228.87 1759.65   5
   8   7   3 3985.86 1270.52   1
  -8  -7   3 6888.30 1808.26   2
   8  -7  -4 5905.04 1563.96   5
   8   7   4 3893.15 1499.19   1
  -8  -7   4 4364.76 1677.30   2
  -8  -8  -3 666.035 665.009   5
   8  -8   3 85.3721 1232.80   4
   8   8  -3-948.553 1011.96   7
  -8   8   3-448.170 557.098   6
  -8  -8  -2-134.301 561.124   5
   8  -8   2 765.113 1256.32   4
   8   8  -2 135.050 1046.34   7
  -8   8   2-286.737 1120.78   6
  -8  -8  -1 7385.84 1486.44   5
   8  -8   1 9976.40 1819.99   4
   8   8  -1 8243.69 1292.21   1
  -8  -8   0 7550.76 1182.34   5
   8   8   0 7866.31 1411.84   1
   8  -8   0 8551.20 1483.64   4
   8  -8  -1 8581.55 1937.96   5
   8   8   1 7896.78 1620.19   1
   8  -8  -2 165.860 846.985   5
  -8  -8   2 1150.97 1374.45   2
   8   8   2 1185.90 1020.13   1
   8  -8  -3 21.0683 422.458   5
  -8  -8   3 551.148 1105.65   2
   8   8   3 1375.96 1085.87   1
   8  -9   1 3871.20 1390.55   4
   8   9  -1 1984.91 1333.62   7
   8  -9   0-1114.40 993.586   5
   8   9   0 632.652 886.838   1
   8  -9  -1 672.593 1055.04   5
   8   9   1 3724.38 1288.04   1
   9   0   0-495.965 377.623   2
  -9   0   0-153.904 217.827   4
  -9   0   0-182.844 436.887   2
  -9   0   1 2810.13 739.719   2
   9   0   1 3691.88 629.681   2
  -9   0  -1 3808.94 793.492   4
   9   0  -1 2484.31 611.377   7
  -9   0   1 2491.36 534.002   4
  -9   0  -1 3288.69 600.480   2
   9   0  -1 2434.30 720.233   4
  -9   0  -1 2838.52 721.840   6
  -9   0   2 1354.85 751.227   2
   9   0  -2 659.645 404.256   1
   9   0  -2 900.446 460.673   5
  -9   0   2 2217.17 710.273   7
  -9   0  -2 916.028 661.276   4
   9   0  -2 388.941 646.958   7
  -9   0   2 1201.31 484.411   4
  -9   0  -2 741.234 465.901   6
   9   0  -2 1420.12 636.919   4
   9   0   2 940.256 394.301   2
  -9   0  -3 33604.3 3029.41   3
   9   0  -3 33216.6 1793.00   1
  -9   0   3 32964.0 2214.67   7
  -9   0  -3 33783.6 2487.78   4
   9   0   3 32192.2 2329.78   4
  -9   0  -3 31952.4 1766.04   6
   9   0   3 29136.1 2009.74   7
  -9   0   3 33770.9 1994.30   4
   9   0  -3 35176.0 2458.04   7
   9   0   3 32284.3 1416.68   2
  -9   0   3 30753.6 2317.65   2
   9   0  -3 34007.1 2454.13   2
   9   0  -3 33414.1 1966.97   5
  -9   0  -4 13843.9 2378.13   3
   9   0   4 15717.0 1861.60   4
  -9   0   4 13096.5 1494.36   4
  -9   0   4 13281.3 1730.86   2
   9   0   4 14579.7 853.986   2
   9   0  -4 14620.2 1892.74   7
   9   0  -4 13382.9 1554.65   5
   9   0  -4 13801.4 1288.49   1
  -9   0   5 444.535 635.222   2
   9   0  -5 62.6454 602.533   5
   9   0  -5 494.056 767.012   7
   9   0   5 1068.02 999.328   4
  -9   0   5 556.958 507.589   4
   9   0  -6 1591.14 896.864   5
   9   0  -6-119.597 1185.30   7
   9   0   6-72.1309 870.440   4
  -9   0   6 524.693 724.529   2
   9   0  -7-645.773 752.877   5
   9   0  -7-1705.81 1384.71   7
   9   0   7 209.607 626.896   4
  -9   0   7 305.237 577.722   2
   9   1  -7 2650.37 1081.00   5
   9   1  -7 2678.84 1590.16   7
  -9   1   7 5321.44 1147.81   2
   9  -1   7 1397.46 1409.18   4
   9   1  -6 7064.57 1556.75   5
   9  -1   6 7136.20 1716.51   4
   9   1  -6 7600.11 1971.36   7
  -9   1   6 9699.69 1559.77   2
   9   1  -5 6878.55 1357.36   5
   9  -1   5 6277.13 1610.12   4
   9   1  -5 7074.46 1782.84   7
   9  -1   5 7455.81 1180.11   6
  -9   1   5 7116.74 1069.62   4
  -9   1   5 6661.27 1410.11   2
  -9  -1  -4 19328.4 2799.20   3
   9   1  -4 22004.0 2362.84   7
  -9  -1  -4 24656.9 2357.47   4
   9  -1   4 19203.7 2209.85   4
  -9   1   4 21752.4 1583.79   4
   9  -1   4 22383.3 2053.57   7
  -9   1   4 21049.0 2101.57   2
   9  -1   4 22112.4 1803.94   6
   9   1  -4 22639.7 1808.71   5
   9   1  -4 22044.7 1407.95   1
  -9  -1  -3 28244.3 2726.90   3
   9   1  -3 26830.5 1453.86   1
  -9  -1  -3 28006.2 2226.95   4
   9  -1   3 25370.0 2184.28   4
   9  -1   3 26627.7 1509.62   2
  -9   1   3 23272.6 1496.77   4
   9   1  -3 22126.6 2108.76   7
  -9   1   3 28078.3 1968.28   7
  -9   1   3 26079.6 2098.56   2
  -9  -1  -3 26628.5 1416.43   6
   9   1  -3 26639.9 2300.65   2
   9  -1   3 28620.3 1975.39   6
   9  -1   3 25486.3 1828.57   7
   9   1  -3 25302.6 1569.32   5
  -9  -1  -2 820.857 776.520   3
   9   1  -2 285.838 265.660   5
   9  -1   2 507.092 374.284   7
   9  -1   2 323.906 390.330   2
  -9  -1  -2 1368.53 483.202   4
   9   1  -2 373.677 642.342   7
  -9   1   2 540.503 446.868   7
  -9   1   2 534.431 290.792   4
  -9  -1  -2 687.574 278.783   2
  -9  -1  -2 672.765 436.550   6
   9  -1   2 719.732 493.089   6
  -9   1   2 1020.35 759.115   2
   9   1  -2 652.900 648.398   4
   9   1  -1 1702.69 661.937   7
  -9  -1  -1 1535.14 620.700   4
  -9   1   1 1926.52 504.691   4
  -9   1   1 1356.07 627.448   2
   9  -1   1 2054.95 547.347   2
  -9  -1  -1 2151.57 472.568   2
  -9   1   0 27396.6 1648.71   4
   9  -1   0 25175.9 1544.64   4
  -9  -1   0 26953.9 1705.53   4
  -9   1   0 25283.5 1586.99   2
   9   1   0 26741.2 1683.92   2
  -9  -1   0 27838.1 1684.63   2
  -9   1   0 28219.6 1923.73   6
  -9  -1   1 1406.60 591.415   2
   9  -1  -1 1089.83 415.389   7
  -9   1  -1 2286.47 672.712   4
  -9  -1   1 1730.24 511.628   4
   9  -1  -1 893.700 478.067   4
   9   1   1 1786.67 492.077   2
  -9   1  -1 1398.09 548.795   6
   9   1   1 1826.38 510.681   5
   9   1   2 822.399 474.694   5
  -9  -1   2 343.656 619.284   2
   9  -1  -2 565.829 441.232   5
   9   1   2 360.270 313.717   2
  -9   1  -2 476.901 402.000   4
   9   1   2 352.460 525.348   4
   9  -1  -2 333.040 481.132   7
  -9   1  -2 419.044 481.429   6
  -9  -1   2 551.781 421.597   4
   9  -1  -2 374.715 347.847   1
   9  -1  -2 797.358 438.297   4
   9  -1  -3 29211.6 1891.36   1
   9  -1  -3 26700.9 2155.23   2
   9   1   3 27557.4 2136.23   4
   9  -1  -3 23091.6 2049.67   7
  -9  -1   3 26288.5 2010.25   4
  -9  -1   3 25705.7 2062.27   7
  -9  -1   3 25716.1 2219.89   2
  -9   1  -3 24134.9 1786.14   6
   9   1   3 24139.0 853.832   2
   9   1   3 26953.1 2272.12   5
   9  -1  -3 26844.1 1951.99   5
  -9   1  -4 21532.6 2966.41   3
   9   1   4 20788.0 2135.59   4
  -9  -1   4 21772.3 2110.80   4
   9  -1  -4 25613.0 2400.33   2
   9  -1  -4 19621.7 2249.65   7
  -9  -1   4 21815.9 2276.96   2
   9  -1  -4 20751.9 2054.26   5
   9  -1  -4 22505.9 1826.06   1
   9  -1  -5 8784.61 1672.40   5
  -9  -1   5 9453.24 1799.14   2
   9   1   5 8286.89 1577.22   4
   9  -1  -5 8357.33 1908.55   7
   9  -1  -6 6351.56 1508.19   5
  -9  -1   6 6379.87 1415.35   2
   9  -1  -6 6416.07 1810.67   7
   9   1   6 6187.95 1556.65   4
  -9  -1   7 2555.59 975.812   2
   9  -1  -7 5520.80 1490.53   5
   9  -1  -7 1732.91 1327.73   7
   9   1   7 3312.67 1388.16   4
   9   2  -7-65.1027 1176.29   7
   9  -2   7 26.3694 1134.94   4
  -9   2   7-456.598 532.312   2
   9   2  -6 2253.34 1003.52   7
   9  -2   6 1777.71 1255.25   4
  -9   2   6 2353.07 766.261   2
  -9   2   6-635.008 664.127   6
  -9  -2  -6 1300.78 858.201   5
   9   2  -6 128.229 856.818   5
   9   2  -5 9082.10 1794.06   7
  -9   2   5 8221.14 843.666   4
   9  -2   5 7931.51 1785.13   4
  -9   2   5 8296.65 1414.89   2
   9  -2   5 9784.47 1487.79   6
   9   2  -5 9150.27 1285.65   5
  -9  -2  -5 8027.80 1691.08   5
   9   2  -4 1498.44 546.670   5
  -9  -2  -4 2318.88 1199.11   3
   9  -2   4 1382.09 805.478   7
  -9  -2  -4 653.014 707.254   4
   9  -2   4 1466.68 993.614   4
   9   2  -4 1011.68 842.259   7
  -9   2   4 823.129 354.502   4
  -9   2   4 1041.00 696.155   2
   9  -2   4 1262.55 623.138   6
  -9  -2  -4 1619.06 888.557   5
  -9  -2  -3 9449.69 1835.62   3
   9   2  -3 11059.3 816.316   1
  -9  -2  -3 13138.0 1534.38   4
   9  -2   3 10576.1 1628.48   4
  -9   2   3 8523.65 772.789   4
   9  -2   3 9872.95 1169.36   7
  -9   2   3 10828.1 1408.37   2
  -9  -2  -3 9920.58 778.176   6
  -9   2   3 10469.7 1294.95   7
   9  -2   3 8821.15 1331.69   6
   9   2  -3 10529.6 1528.38   7
  -9  -2  -3 10593.7 1542.88   5
   9   2  -3 11017.9 871.625   5
  -9  -2  -2 43680.9 2917.84   3
  -9  -2  -2 39638.0 2434.43   4
  -9   2   2 42717.2 1692.41   4
   9  -2   2 45830.4 1855.86   7
  -9   2   2 44186.3 2432.17   2
  -9   2   2 41476.9 1959.78   7
   9   2  -2 44054.4 2518.67   7
  -9  -2  -2 43217.8 1577.64   2
   9  -2   2 38114.7 2465.14   6
  -9   2   2 41420.1 2600.80   6
  -9  -2  -2 45875.0 2518.03   5
   9   2  -2 43520.0 1113.13   5
   9  -2   1 22743.2 1903.78   6
  -9   2   1 23012.8 1410.65   4
   9  -2   1 24555.9 1818.16   4
  -9  -2  -1 28085.3 1902.95   4
   9  -2   1 24727.9 947.310   7
   9  -2   1 26563.8 1744.20   2
  -9   2   1 25983.7 1203.45   7
  -9  -2  -1 24843.0 1522.73   2
  -9   2   1 24137.4 1967.42   6
   9   2  -1 25892.5 865.769   5
  -9   2   0 112581. 3422.80   4
   9   2   0 120473. 3769.73   2
   9  -2   0 112550. 3255.51   4
  -9   2   0 108916. 3898.81   6
  -9  -2   0 111503. 3678.35   4
   9  -2   0 111166. 1809.78   7
  -9  -2   0 113765. 3580.08   2
   9   2   0 113519. 2623.10   5
  -9   2  -1 25073.6 1901.13   4
   9  -2  -1 26516.7 1437.10   4
  -9  -2   1 25671.8 1855.22   4
   9  -2  -1 26098.8 1364.75   7
  -9  -2   1 26569.8 2003.42   2
  -9   2  -1 25146.0 1949.10   6
   9   2   1 24597.2 1562.71   2
   9  -2  -1 28601.0 1780.74   1
   9   2   1 24330.6 1607.80   5
  -9   2  -2 44869.9 3143.08   3
   9  -2  -2 42468.4 2510.96   2
   9  -2  -2 43669.9 2353.58   1
   9   2   2 41859.8 2371.16   4
  -9  -2   2 44629.3 2593.65   4
  -9  -2   2 47197.9 2823.36   2
  -9   2  -2 43062.3 2527.53   6
   9  -2  -2 43082.9 1722.60   4
   9   2   2 43983.5 2542.97   5
   9  -2  -2 44263.3 2312.64   7
   9  -2  -3 11545.6 1457.79   2
   9  -2  -3 12136.7 1410.95   1
   9   2   3 10967.6 1555.68   5
   9  -2  -3 11573.1 1539.41   7
  -9   2  -3 10538.9 1937.08   3
   9   2   3 10530.2 1358.26   4
  -9  -2   3 8913.00 1523.01   2
  -9  -2   3 10113.1 1432.28   4
  -9   2  -3 12881.8 1532.96   6
   9  -2  -3 11029.2 1404.22   5
   9  -2  -4 1071.97 937.883   5
  -9  -2   4 995.556 923.174   2
  -9   2  -4 171.864 1503.81   3
   9   2   4 1406.00 814.802   4
   9  -2  -4 2702.72 787.926   1
   9  -2  -4 836.702 708.675   7
   9  -2  -5 7305.23 1674.67   7
   9  -2  -5 7248.22 1550.97   5
  -9  -2   5 7902.61 1630.21   2
   9   2   5 8502.75 1611.22   4
   9  -2  -6 289.455 1090.44   5
  -9  -2   6 1505.06 1047.68   2
   9  -2  -6 1095.01 789.618   7
   9   2   6 1833.12 1083.45   4
   9  -2  -7-855.707 1160.56   5
  -9  -2   7 1444.42 889.956   2
   9   2   7-1253.60 1130.18   4
  -9   3   6 6029.13 1288.65   1
   9  -3   6 5373.04 1755.89   4
   9   3  -6 3879.90 1357.01   7
  -9   3   6 5324.24 1283.78   6
  -9  -3  -6 7484.81 1870.78   5
   9  -3   5 5000.11 1529.64   4
  -9   3   5 4220.24 1174.10   1
   9   3  -5 4120.03 1510.69   7
  -9   3   5 2969.61 985.825   6
  -9  -3  -5 4695.76 1403.14   5
  -9  -3  -4 3116.43 1122.09   5
  -9  -3  -4 3646.91 1560.67   3
  -9   3   4 4771.03 1225.48   1
  -9  -3  -4 3087.83 984.921   4
   9  -3   4 3969.51 1461.04   4
   9  -3   4 3055.91 955.994   7
   9   3  -4 3187.85 1255.01   7
  -9   3   4 3479.53 1103.09   6
  -9  -3  -3 2787.82 1126.90   3
  -9   3   3 2499.59 330.011   4
   9   3  -3 2855.52 353.558   1
  -9  -3  -3 2835.56 752.351   4
  -9  -3  -3 2891.32 295.330   2
   9  -3   3 2706.78 1011.35   4
   9  -3   3 3000.57 713.573   7
  -9   3   3 3282.74 831.471   7
   9   3  -3 1847.13 918.109   7
   9  -3   3 2754.96 911.159   6
  -9  -3  -3 3521.87 1030.08   5
  -9   3   3 3092.11 983.169   6
  -9  -3  -2 8124.04 1370.73   3
  -9   3   2 7184.46 706.229   4
   9  -3   2 9474.07 1423.19   4
  -9  -3  -2 9176.26 1254.00   4
   9  -3   2 9153.08 738.902   7
  -9   3   2 7606.31 922.592   7
  -9  -3  -2 7769.21 831.629   2
   9  -3   2 8849.47 1386.74   6
  -9   3   2 7520.62 1261.82   6
  -9  -3  -2 7986.62 1170.66   5
   9   3  -2 8592.01 1284.02   7
  -9   3   1 39875.3 1361.88   7
  -9   3   1 35302.6 1830.32   4
   9  -3   1 38831.7 2354.80   4
  -9  -3  -1 40570.7 2385.51   4
  -9  -3  -1 37268.6 2021.53   2
  -9   3   1 39557.4 2599.15   6
  -9  -3  -1 37626.3 1966.59   5
   9  -3   0 5140.79 844.145   1
   9  -3   0 5358.76 867.096   4
  -9  -3   0 7667.46 1115.16   2
  -9  -3   0 5633.00 969.818   4
  -9   3   0 4850.58 1052.36   6
   9   3   0 5337.28 625.227   5
  -9   3  -1 39282.1 2641.81   3
   9  -3  -1 38331.5 1696.21   4
   9  -3  -1 38420.8 2275.94   1
  -9  -3   1 34144.8 2360.20   4
   9   3   1 37719.2 2366.98   4
  -9  -3   1 37694.7 2506.56   2
  -9   3  -1 37626.0 2584.82   6
   9  -3  -1 38864.1 1501.74   7
   9   3   1 37883.2 2032.48   5
   9  -3  -2 9361.67 1223.01   1
  -9   3  -2 8564.08 1585.03   3
   9  -3  -2 8303.88 1004.17   7
   9  -3  -2 8660.16 706.832   4
  -9  -3   2 8470.72 1328.05   2
  -9   3  -2 7492.73 1226.54   6
   9   3   2 8089.62 1201.05   4
  -9  -3   2 7750.30 1248.30   4
   9   3   2 7717.67 1116.44   5
   9  -3  -2 8290.06 1229.21   2
   9  -3  -3 2302.47 881.064   2
   9  -3  -3 2326.03 825.554   5
  -9   3  -3 2529.31 1200.70   3
  -9  -3   3 3049.65 1105.30   2
   9  -3  -3 1539.67 732.667   7
  -9   3  -3 3046.94 934.800   6
   9   3   3 3147.77 873.907   4
   9  -3  -4 3241.08 1204.59   5
  -9  -3   4 5553.49 1326.07   2
   9  -3  -4 5081.72 1372.52   7
   9   3   4 3656.60 1079.71   4
   9  -3  -5 4061.67 1343.44   5
  -9  -3   5 3951.90 1231.02   2
   9  -3  -5 3394.05 1155.74   7
   9   3   5 3599.13 1136.84   4
   9  -3  -6 4754.19 1384.10   5
  -9  -3   6 4956.45 1497.95   2
   9   3   6 4466.41 1305.43   4
  -9   4   6 2423.24 899.937   1
   9   4  -6 1826.04 1516.15   7
   9  -4   6 2518.60 1406.17   4
  -9  -4  -6 2293.67 1228.45   5
  -9  -4  -5 4298.15 1361.35   5
   9   4  -5 3754.86 1380.02   7
   9  -4   5 3631.64 1217.57   4
  -9   4   5 3921.10 1066.35   6
  -9   4   5 3154.68 1111.19   1
   9  -4   4 17720.8 2422.50   4
  -9  -4  -4 17164.1 1943.44   4
  -9  -4  -4 16604.7 2581.16   3
   9   4  -4 14971.9 2131.44   7
   9  -4   4 18176.0 1617.72   7
  -9   4   4 14625.2 1943.63   1
  -9   4   4 19590.2 2166.29   6
  -9  -4  -4 18598.4 2362.17   5
  -9  -4  -3 46328.7 3466.83   3
   9  -4   3 43697.3 3324.54   4
  -9  -4  -3 42221.3 2757.16   4
  -9   4   3 41511.0 2597.32   7
  -9  -4  -3 42944.5 1671.59   2
  -9   4   3 39062.4 2870.12   6
   9  -4   3 40722.1 1885.36   7
   9   4  -3 41183.8 2981.06   7
  -9  -4  -3 38751.7 2980.03   5
  -9  -4  -2 7780.47 1276.15   5
  -9  -4  -2 8432.24 1429.06   3
  -9   4   2 6651.81 1324.58   6
  -9  -4  -2 10114.1 1272.63   4
  -9   4   2 7976.85 986.323   7
   9  -4   2 7460.78 1417.46   4
   9   4  -2 8304.14 1402.95   7
  -9  -4  -2 8193.56 978.075   2
   9  -4   1 38357.7 2548.22   4
  -9  -4  -1 40598.9 2568.77   4
  -9   4   1 41991.7 1414.66   7
   9  -4   1 42901.2 2401.76   1
  -9   4   1 36298.7 2705.24   6
  -9  -4  -1 44441.4 2479.18   2
   9  -4   1 40164.9 2945.37   6
  -9  -4  -1 41592.3 2254.37   5
  -9  -4   0 1204.49 809.741   2
   9   4   0 1161.45 344.349   5
   9  -4   0 1087.91 585.881   4
  -9   4   0 563.082 678.001   6
  -9  -4   0 810.437 580.223   4
   9  -4   0 1518.86 580.775   1
   9  -4   0 1238.51 737.708   6
   9   4   0 1396.08 793.075   4
  -9  -4   0 1097.41 412.341   5
  -9   4  -1 41863.2 2857.58   3
   9  -4  -1 42090.3 2568.85   1
   9  -4  -1 43645.4 1937.53   4
   9  -4  -1 45764.4 2780.67   2
  -9  -4   1 40052.7 2713.58   4
  -9  -4   1 46052.5 3043.01   2
   9   4   1 33954.5 2513.02   4
  -9   4  -1 42644.3 2972.67   6
   9  -4  -1 44385.8 2987.66   6
   9   4   1 41454.5 2134.20   5
   9  -4  -2 8194.67 1318.04   5
  -9   4  -2 6060.03 1458.25   3
   9  -4  -2 7867.45 633.322   4
   9   4   2 8340.78 1260.05   4
  -9  -4   2 7269.50 1460.36   2
  -9   4  -2 8759.82 1469.98   6
   9   4   2 8027.56 1237.29   5
   9   4   3 40031.1 2662.87   4
  -9   4  -3 39639.8 3134.50   6
  -9  -4   3 39647.4 3280.53   2
   9  -4  -3 38362.0 2931.32   5
   9   4   4 16922.8 1841.39   4
  -9  -4   4 18452.3 2464.26   2
   9  -4  -4 17423.2 2310.95   5
   9  -4  -5 2294.15 1125.29   5
  -9  -4   5 2092.72 1110.49   2
   9   4   5 3168.21 920.748   4
   9  -4  -6-1168.82 1141.18   5
  -9  -4   6 2070.67 1091.03   2
   9   4   6 450.642 771.280   4
  -9  -5  -6 4482.04 1316.88   5
   9  -5   6 1119.03 1477.40   4
   9   5  -6 2420.24 1508.04   7
  -9   5   6 1607.42 1150.03   1
  -9  -5  -5 404.968 939.927   5
   9  -5   5-1301.01 1106.07   4
   9   5  -5-2919.42 1242.94   7
  -9   5   5 1349.89 699.638   6
  -9   5   5 3563.79 1057.87   1
  -9  -5  -4 4232.53 1281.55   5
  -9   5   4 6339.70 1436.50   1
   9  -5   4 5747.08 1726.11   4
  -9   5   4 6366.15 1326.07   6
   9   5  -4 6885.19 1530.64   7
  -9  -5  -3 3048.80 1051.26   5
  -9  -5  -3 6764.95 1426.75   3
   9  -5   3 5903.85 1470.33   4
  -9  -5  -3 4610.52 765.631   2
  -9  -5  -3 6429.48 1237.09   4
  -9   5   3 2637.86 838.196   7
  -9  -5  -3 4405.93 818.780   6
   9   5  -3 5118.89 1316.63   7
  -9   5   3 3335.78 1110.19   6
   9  -5   3 5253.47 830.635   1
  -9  -5  -2 5544.74 1194.84   5
  -9  -5  -2 4344.76 1124.78   3
   9  -5   2 3931.91 1285.76   4
  -9   5   2 4712.63 830.902   7
   9   5  -2 7100.58 1447.57   7
   9  -5   2 4927.79 942.796   1
  -9  -5  -2 6038.80 1034.81   2
  -9  -5  -2 6164.98 1124.46   4
  -9   5   2 4998.00 1308.71   6
   9  -5   1 10400.6 1498.20   4
   9  -5   1 9968.08 1332.85   1
  -9  -5  -1 10912.5 1522.44   4
  -9   5   1 9965.51 1596.88   6
  -9   5   1 10290.5 770.135   7
  -9  -5  -1 9223.20 1239.63   5
  -9  -5  -1 11257.7 1512.47   2
  -9  -5   0 1839.90 474.535   5
  -9   5   0 1802.15 634.674   3
  -9   5   0 1944.44 821.988   6
  -9  -5   0 2455.61 930.187   2
   9  -5   0 2649.45 788.359   4
  -9   5  -1 9903.43 1612.01   3
   9  -5  -1 11409.1 1132.17   4
  -9  -5   1 12233.0 1786.56   2
  -9   5  -1 10612.9 1781.13   6
   9   5   1 10498.7 1659.13   4
   9   5   1 11083.4 1168.94   5
   9   5   2 5988.69 1112.97   5
   9  -5  -2 4550.50 1183.77   5
  -9   5  -2 5726.02 1408.42   3
   9  -5  -2 5312.55 529.550   4
  -9  -5   2 5371.43 1415.33   2
  -9   5  -2 5022.77 1330.31   6
   9   5   2 4902.33 1202.70   4
   9  -5  -3 5084.25 1281.96   5
  -9  -5   3 2401.64 1397.34   2
   9   5   3 4539.76 1122.74   4
   9  -5  -4 4999.27 1605.18   5
  -9  -5   4 4516.69 1399.02   2
   9   5   4 5553.68 1232.73   4
   9  -5  -5 409.936 769.786   5
  -9  -5   5 323.730 1294.28   2
   9   5   5 630.924 734.191   4
   9  -5  -6 1622.26 1300.43   5
  -9  -5   6 918.479 731.775   2
   9   5   6 1699.91 1552.63   1
  -9  -6  -5 938.564 623.141   5
  -9   6   5 925.904 981.650   1
   9  -6   5-398.214 410.374   4
  -9  -6  -4 2952.47 1025.06   5
   9  -6   4 5143.39 1656.80   4
   9   6  -4 2784.69 1098.30   7
  -9   6   4 2706.28 962.484   6
  -9   6   4 3494.16 1159.32   1
  -9  -6  -3 6797.18 1460.75   5
  -9  -6  -3 7349.55 1476.16   3
   9  -6   3 6792.89 1719.91   4
   9   6  -3 6540.84 1525.37   7
  -9  -6  -3 8458.61 1224.82   2
  -9   6   3 5289.99 1409.65   6
  -9  -6  -2 1116.00 596.548   5
  -9  -6  -2 649.593 752.978   3
   9  -6   2 1222.40 875.208   4
  -9   6   2 1019.97 536.518   7
  -9  -6  -2-245.274 730.157   2
  -9  -6  -2 900.733 737.563   6
  -9   6   2 2045.11 966.957   6
   9   6  -2 1057.28 959.499   7
   9   6  -2 651.072 356.553   1
  -9  -6  -1 3833.33 946.804   5
  -9   6   1 3616.37 743.916   3
   9  -6   1 3733.58 1053.09   4
   9   6  -1 3101.84 759.306   1
  -9   6   1 3531.68 1304.49   6
  -9  -6  -1 2837.19 1090.30   2
  -9   6   1 4587.79 561.163   7
  -9  -6   0 1526.28 495.323   5
   9  -6   0 2100.08 696.411   4
  -9   6   0 2006.97 680.617   3
  -9   6   0 1170.58 819.406   6
  -9  -6   0 2624.29 1116.74   2
  -9   6  -1 2297.35 960.706   3
   9  -6  -1 3730.84 774.694   4
  -9   6  -1 2288.93 1183.97   6
  -9  -6   1 4132.91 1474.00   2
  -9  -6   1 3628.22 405.364   5
   9  -6  -2 161.933 791.747   5
  -9   6  -2 776.332 972.716   6
   9  -6  -2 965.365 297.596   4
  -9  -6   2 708.169 1073.20   2
   9   6   2 677.559 930.610   4
   9  -6  -3 4716.27 1317.09   5
  -9  -6   3 6047.41 1569.45   2
   9   6   3 7338.09 1522.09   4
   9  -6  -4 3087.43 1297.75   5
  -9  -6   4 2432.03 1247.30   2
   9   6   4 2119.75 1009.04   4
   9  -6  -5 1055.93 1063.02   5
  -9  -6   5-436.158 670.296   2
   9   6   5-257.599 1272.56   1
  -9  -7  -4-2517.54 1222.93   5
   9   7  -4 683.359 1220.97   7
   9  -7   4 47.4326 813.550   4
  -9   7   4-1807.73 928.969   6
  -9   7   4-26.3751 857.500   1
  -9  -7  -3 1920.44 978.786   5
  -9  -7  -3 2412.51 962.626   2
   9   7  -3 3055.04 1203.00   7
   9  -7   3 3416.59 1178.51   4
  -9   7   3 5566.04 1234.31   6
  -9  -7  -2 2520.43 933.519   5
  -9   7   2 1722.95 1055.68   6
   9   7  -2 1463.82 883.287   7
  -9  -7  -2 1858.92 844.964   2
   9   7  -2 1698.60 494.537   1
   9  -7   2 1387.03 965.613   4
  -9  -7  -1 1058.91 546.698   5
   9  -7   1 563.335 763.952   4
  -9   7   1 632.066 953.434   6
   9   7  -1 1407.52 503.677   1
  -9  -7   0 817.522 369.964   5
   9  -7   0 508.391 566.962   4
   9   7   0-115.854 670.809   1
  -9   7   0 219.828 908.140   6
   9  -7  -1 785.956 622.635   4
   9   7   1 597.954 836.329   1
  -9   7  -1 2923.32 1231.94   6
  -9  -7   1 784.819 799.920   2
   9  -7  -2 2683.05 1109.62   5
   9   7   2 1836.09 1008.45   1
  -9  -7   2 966.685 1354.94   2
   9  -7  -3 3306.65 1200.45   5
   9   7   3 2919.19 1237.34   1
  -9  -7   3 3586.40 1421.84   2
   9   7   4 162.024 1179.98   1
   9  -7  -4 179.091 876.603   5
  -9  -7   4-1522.36 1289.02   2
  -9  -8  -3-932.194 993.521   5
   9  -8   3 1131.48 1228.58   4
   9   8  -3 172.461 921.872   7
  -9   8   3 3206.98 1122.64   6
  -9  -8  -2 2226.82 864.339   5
   9  -8   2 2586.34 1141.70   4
   9   8  -2 1302.58 842.964   7
  -9   8   2 1136.23 1161.01   6
  -9  -8  -2 1982.49 1034.98   2
  -9  -8  -1 2144.53 1025.09   5
   9   8  -1 1725.05 875.196   1
   9  -8   1 2936.35 986.285   4
  -9   8   1 2592.89 1114.20   6
   9   8   0-427.590 785.788   1
   9  -8   0 824.868 504.343   4
   9  -8  -1 3536.17 1368.75   5
  -9  -8   1 3483.33 1506.75   2
   9   8   1 1942.66 1115.55   1
   9  -8  -2 3401.16 1357.61   5
  -9  -8   2 3397.34 1478.48   2
   9   8   2 2527.72 1096.41   1
   9  -8  -3 1319.31 850.604   5
  -9  -8   3 1212.12 1368.29   2
   9   8   3-245.805 1081.63   1
   9  -9   1 953.894 827.771   4
   9   9  -1 484.088 1229.69   7
  -9  -9  -1-1112.36 1613.72   2
   9   9   0 6.83667 873.379   1
  -9  -9   0 1711.09 1385.44   2
   9   9   1 2717.35 878.198   1
  -9  -9   1 762.682 922.488   2
 -10   0   0 71848.2 2836.06   4
 -10   0   0 69997.4 2711.79   2
  10   0   0 66816.9 2731.88   2
 -10   0  -1 163970. 4575.16   4
 -10   0   1 158354. 4015.55   4
  10   0  -1 161517. 4095.39   4
  10   0  -1 162956. 3751.70   7
 -10   0   1 161626. 4498.56   2
  10   0   1 156277. 3806.30   2
 -10   0  -1 154307. 4278.99   6
 -10   0  -1 162209. 3645.38   2
  10   0   2 3608.33 623.327   2
 -10   0   2 3270.50 898.372   2
  10   0  -2 4018.33 829.781   7
 -10   0  -2 3740.38 881.579   4
 -10   0   2 3294.32 663.915   4
 -10   0  -2 3099.45 702.899   6
  10   0  -2 3325.43 803.731   4
  10   0  -2 4235.46 664.111   5
  10   0   2 3936.74 831.381   5
  10   0   3 2855.01 922.347   5
 -10   0   3 4067.48 1024.61   2
  10   0  -3 3347.24 746.480   5
 -10   0  -3 4158.33 1210.22   3
  10   0   3 2996.21 762.744   7
  10   0  -3 3178.14 906.771   2
 -10   0   3 4073.66 822.157   7
  10   0   3 2611.98 920.421   4
  10   0  -3 4851.12 1083.26   7
 -10   0  -3 3699.42 738.178   6
 -10   0   3 4101.32 744.632   4
 -10   0  -3 4075.77 897.163   4
  10   0  -3 4651.16 757.618   1
  10   0   3 3893.27 573.671   2
 -10   0   4 6084.83 1257.31   2
  10   0  -4 5071.18 1053.31   5
 -10   0  -4 5766.42 879.205   6
 -10   0  -4 6675.73 1731.55   3
  10   0   4 6211.56 623.505   2
  10   0  -4 5208.08 1371.92   7
  10   0   4 8781.75 1545.10   4
 -10   0   4 6208.12 1012.35   4
  10   0  -4 5652.04 901.098   1
 -10   0   5 11650.6 1821.60   2
 -10   0   5 13903.9 1755.91   4
  10   0  -5 13007.5 2152.92   7
  10   0   5 13633.4 2060.65   4
  10   0  -5 14184.9 1817.52   5
  10   0  -6 270.129 881.702   5
  10   0  -6 804.229 1372.66   7
  10   0   6 1442.41 984.601   4
 -10   0   6 1269.05 677.120   2
  10   0  -7 715.804 532.038   5
  10   0  -7 862.995 1071.64   7
  10   0   7 1866.52 1260.42   4
 -10   0   7 569.386 926.130   2
  10  -1   7-75.3278 1191.59   4
 -10   1   7 1995.00 917.878   2
  10   1  -6 246.902 756.779   5
  10   1  -6 291.582 976.294   7
  10  -1   6 629.980 1248.10   4
 -10   1   6 2471.28 771.457   2
  10   1  -5 4564.27 1027.91   5
 -10  -1  -5-728.221 1977.83   3
  10   1  -5 3435.76 1453.73   7
  10  -1   5 4557.05 1425.73   4
  10  -1   5 3004.64 608.475   2
 -10   1   5 3301.32 817.492   4
  10  -1   5 3555.04 895.039   6
 -10   1   5 3156.03 1174.81   2
  10   1  -4 6930.64 1059.19   5
 -10  -1  -4 7509.42 1884.34   3
  10  -1   4 7554.46 898.951   2
  10  -1   4 8364.42 1617.41   4
  10  -1   4 9112.14 1391.96   7
  10   1  -4 6783.65 1461.70   7
 -10  -1  -4 8130.33 804.450   6
 -10   1   4 6115.17 940.063   4
  10  -1   4 6054.32 978.764   6
 -10   1   4 5829.88 1323.44   2
  10   1  -4 6078.72 842.028   1
 -10  -1  -3 18011.2 2363.93   3
 -10  -1  -3 17988.9 1876.66   4
  10   1  -3 16129.8 1210.44   1
  10  -1   3 18310.7 1968.53   4
 -10   1   3 16177.4 1313.10   4
  10  -1   3 16116.5 1494.02   7
  10  -1   3 17836.8 1315.96   2
  10   1  -3 17417.6 1832.31   7
  10   1  -3 16646.3 1861.42   2
 -10   1   3 18326.8 1657.55   7
 -10   1   3 15171.3 1767.03   2
 -10  -1  -3 17237.9 1260.81   6
  10  -1   3 15562.1 1584.08   6
  10   1  -3 15583.2 1287.19   5
 -10  -1  -2 42389.9 2579.80   4
 -10   1   2 40487.8 1951.22   4
 -10  -1  -2 44953.0 1654.22   2
  10  -1   2 45851.0 2091.69   2
  10   1  -2 43415.0 2447.73   7
 -10   1   2 43834.2 2193.10   7
  10   1  -2 47185.7 2708.76   4
 -10  -1  -2 44025.5 2142.83   6
 -10   1   2 43847.3 2538.20   2
  10   1  -2 47408.0 1693.19   5
 -10  -1  -2 40227.5 3099.25   3
 -10  -1  -1 78940.7 3206.21   4
 -10   1   1 68714.3 2564.25   4
  10   1  -1 70693.1 3009.79   4
 -10   1   1 74582.6 3033.34   2
  10  -1   1 76064.6 2806.29   2
  10   1  -1 73880.7 2870.53   7
 -10  -1  -1 78446.3 2604.83   2
 -10   1   0 27533.9 1782.42   4
  10  -1   0 22376.3 1567.46   4
 -10  -1   0 28537.3 1852.57   4
 -10   1   0 24359.6 1657.55   2
  10  -1   0 26614.0 1793.49   2
  10   1   0 27290.2 1815.89   2
 -10   1   0 26957.7 1998.41   6
 -10  -1   0 26814.0 1758.13   2
 -10   1  -1 72347.7 3125.60   4
 -10  -1   1 73676.4 2981.79   4
  10  -1  -1 75647.4 2668.74   4
  10  -1  -1 74467.1 2403.29   7
 -10  -1   1 74776.0 3192.54   2
  10   1   1 76155.5 2692.08   2
 -10   1  -1 73933.1 3129.73   6
  10   1   1 74491.3 2748.65   5
 -10   1  -2 50426.4 2927.27   4
  10   1   2 49026.4 2626.24   4
 -10  -1   2 45330.8 2471.69   4
  10  -1  -2 44973.4 2253.28   1
  10  -1  -2 44265.5 2337.46   7
  10  -1  -2 44553.2 2128.30   4
  10   1   2 44165.7 1814.32   2
 -10   1  -2 41517.4 2384.10   6
 -10  -1   2 45014.7 2739.11   2
  10   1   2 45457.9 2581.07   5
 -10   1  -3 15024.3 2275.31   3
  10  -1  -3 18260.0 1558.59   1
 -10   1  -3 20697.8 2127.38   4
  10   1   3 17506.5 1830.02   4
 -10  -1   3 13893.3 1557.33   4
  10  -1  -3 15365.0 1714.76   7
 -10  -1   3 16128.0 1671.34   7
 -10  -1   3 15257.2 1784.71   2
  10  -1  -3 16339.8 1780.85   2
  10   1   3 17204.4 885.830   2
 -10   1  -3 16698.1 1551.05   6
  10   1   3 15893.3 1775.68   5
  10  -1  -3 14435.9 1483.75   5
  10  -1  -4 8993.62 1388.48   5
 -10  -1   4 7299.75 1407.16   2
 -10   1  -4 6369.56 1606.11   3
  10  -1  -4 7318.65 1405.34   7
 -10   1  -4 8161.08 1175.17   6
  10   1   4 6641.75 1373.58   4
 -10  -1   4 5591.02 1186.12   4
  10  -1  -4 6618.62 1145.64   1
  10  -1  -5 3082.38 1058.99   5
 -10  -1   5 3361.64 1216.73   2
 -10   1  -5-394.942 1846.99   3
  10  -1  -5 4253.65 1418.96   7
  10   1   5 4389.96 1352.07   4
  10  -1  -6 219.536 919.039   5
 -10  -1   6 199.521 932.908   2
  10   1   6 1335.24 1006.49   4
  10  -1  -6 925.513 1092.32   7
 -10  -1   7-2237.20 1182.97   2
  10  -1  -7 1753.96 1037.19   5
  10  -1  -7-2373.56 1498.56   7
  10   1   7 1217.53 1253.53   4
  10   2  -6 6538.13 1444.02   7
  10  -2   6 8006.91 1773.43   4
 -10   2   6 7066.29 1320.26   2
 -10   2   6 6494.03 1375.66   6
  10   2  -6 5521.80 1263.22   5
  10   2  -5 5948.04 1077.17   5
 -10  -2  -5 1467.55 1516.56   3
  10  -2   5 5281.24 1553.43   4
 -10   2   5 4971.86 714.364   4
 -10   2   5 3529.92 1173.76   2
  10  -2   5 5448.40 1245.39   6
  10   2  -5 5909.69 1807.08   7
 -10  -2  -4 7156.11 1874.24   3
 -10   2   4 5405.62 691.765   4
  10  -2   4 6282.13 1449.47   4
  10   2  -4 5039.68 1262.70   7
 -10   2   4 5168.41 1228.91   2
  10  -2   4 4060.77 968.406   6
  10  -2   4 3991.94 917.224   7
 -10  -2  -4 7985.11 1556.54   5
  10   2  -4 6103.85 876.685   5
  10   2  -4 6264.55 679.367   1
 -10  -2  -3 32463.0 3019.49   3
 -10  -2  -3 36334.7 2599.88   4
  10  -2   3 29396.7 2533.73   4
 -10   2   3 30189.4 1518.97   4
  10   2  -3 30518.9 1431.47   1
  10  -2   3 31412.6 1972.33   7
 -10   2   3 30592.3 2357.08   2
  10   2  -3 31733.9 2504.13   7
 -10   2   3 31735.7 2137.62   7
 -10  -2  -3 35338.0 1603.65   6
  10  -2   3 32771.5 2420.19   6
  10   2  -3 31261.4 1413.54   5
 -10   2   2 6644.78 771.614   4
  10  -2   2 5656.26 904.862   2
  10  -2   2 5847.44 733.504   7
 -10   2   2 5704.82 790.374   7
 -10  -2  -2 6239.76 691.345   2
  10   2  -2 6169.98 1074.41   7
 -10  -2  -2 6925.76 1127.17   4
 -10   2   2 4665.60 1044.93   2
  10  -2   2 5572.44 1059.24   6
 -10   2   2 6647.99 1172.18   6
  10   2  -2 5638.83 458.317   5
 -10   2   1 12699.6 1140.48   4
  10  -2   1 13034.6 1487.27   6
  10  -2   1 12669.7 1370.64   4
 -10  -2  -1 14361.8 1446.27   4
 -10   2   1 13241.5 1361.06   2
  10  -2   1 12673.7 1296.70   2
 -10  -2  -1 12815.3 1181.42   2
 -10   2   1 11183.0 1492.23   6
  10   2  -1 13813.9 1540.73   2
  10   2  -1 13020.1 718.682   5
 -10   2   0 77239.8 3007.26   4
  10  -2   0 77734.2 2864.69   4
 -10  -2   0 80278.5 3235.25   4
  10  -2   0 79661.4 1691.30   7
 -10  -2   0 80896.3 3169.77   2
 -10   2   0 79159.7 3496.27   6
  10   2   0 80046.6 3230.88   2
  10   2   0 78341.2 2324.12   5
 -10  -2   1 11458.6 1442.95   2
 -10   2  -1 12282.8 1384.77   4
  10  -2  -1 12447.1 1096.18   4
 -10  -2   1 13465.5 1416.55   4
  10  -2  -1 13238.7 1032.15   7
  10  -2  -1 12239.7 1249.98   1
  10   2   1 11299.4 1124.72   2
 -10   2  -1 12322.6 1463.23   6
  10   2   1 12056.7 1167.85   5
  10   2   2 6891.05 1107.65   5
  10  -2  -2 5434.50 1046.59   2
 -10   2  -2 6127.67 1315.50   3
 -10   2  -2 5710.66 1159.88   4
 -10  -2   2 5125.39 1108.91   2
  10  -2  -2 5372.41 897.759   1
 -10  -2   2 6707.36 1005.87   4
  10  -2  -2 5612.87 703.405   4
  10  -2  -2 4953.95 850.817   7
  10   2   2 5575.49 1045.39   4
 -10   2  -2 6730.39 1137.90   6
 -10   2  -3 31238.1 3201.93   3
  10  -2  -3 34497.3 2329.73   1
 -10  -2   3 28591.4 2370.12   4
  10   2   3 31509.9 2340.86   4
  10  -2  -3 31054.5 2409.79   7
 -10  -2   3 30252.2 2628.85   2
 -10   2  -3 32211.5 2361.81   6
  10  -2  -3 33573.1 2525.64   2
  10   2   3 34351.5 2634.41   5
  10  -2  -3 32710.8 2362.91   5
  10  -2  -4 5682.82 1291.43   5
 -10  -2   4 4902.89 1242.59   2
 -10   2  -4 5057.15 1841.72   3
  10  -2  -4 6395.74 1533.44   7
  10   2   4 7311.58 1355.45   4
  10  -2  -5 4853.70 1386.68   5
 -10  -2   5 5311.97 1385.93   2
  10  -2  -5 6764.62 1477.52   7
  10   2   5 5840.54 1326.06   4
  10  -2  -6 4737.99 1386.54   5
 -10  -2   6 4804.34 1363.18   2
  10  -2  -6 6324.79 1838.68   7
  10   2   6 9363.99 1674.77   4
  10   3  -6 681.081 791.238   7
  10  -3   6-1320.05 1141.53   4
 -10   3   6 387.537 666.373   6
 -10  -3  -6 1515.58 741.523   5
  10   3  -5 7120.14 1722.62   7
  10  -3   5 9810.29 2052.86   4
 -10   3   5 9886.76 1580.14   6
 -10  -3  -5 10405.5 1969.11   5
 -10   3   4 7761.11 451.762   4
 -10  -3  -4 8094.72 1959.49   3
  10  -3   4 9409.96 1308.44   7
  10  -3   4 9735.81 1893.58   4
  10   3  -4 8913.56 1739.49   7
 -10   3   4 8320.73 1487.61   6
 -10  -3  -4 7835.25 1595.94   5
 -10  -3  -3 23842.6 2779.29   3
 -10   3   3 24581.9 1138.01   4
  10  -3   3 28740.0 2631.89   4
 -10  -3  -3 25776.1 2216.38   4
  10   3  -3 24125.3 1084.23   1
  10  -3   3 25394.7 1709.81   7
 -10  -3  -3 27064.0 958.694   2
 -10   3   3 27642.8 2039.54   7
  10   3  -3 27265.1 2451.33   7
  10  -3   3 25265.7 2339.43   6
 -10   3   3 22978.5 2248.92   6
 -10  -3  -3 22614.9 2253.61   5
 -10   3   2 7967.02 807.443   4
 -10  -3  -2 9047.19 1277.82   4
  10  -3   2 8832.07 732.426   7
  10   3  -2 9107.18 1344.36   7
  10  -3   2 9090.73 1444.56   4
 -10  -3  -2 8142.71 915.090   2
 -10   3   2 7753.56 1288.50   6
  10  -3   2 8411.44 1380.74   6
 -10   3   2 7969.28 918.715   7
 -10  -3  -2 6940.98 1146.79   5
 -10   3   1 784.840 419.227   4
 -10  -3  -1 526.218 441.402   2
  10  -3   1 1194.46 595.993   4
 -10   3   1 697.709 265.599   7
 -10  -3  -1 316.470 505.951   4
 -10   3   1 472.347 576.500   6
  10  -3   1 453.110 714.626   6
 -10   3   0 63880.8 3395.69   6
 -10   3   0 61260.9 2868.22   4
  10  -3   0 56398.2 2562.20   4
 -10  -3   0 59480.9 3042.91   4
 -10  -3   0 59732.2 2959.07   2
  10   3   0 57941.2 1973.90   5
 -10   3  -1-33.3638 603.821   3
  10   3   1 904.857 465.504   5
 -10  -3   1 213.825 789.277   2
  10  -3  -1 933.080 378.170   7
  10  -3  -1 1249.21 431.366   4
 -10   3  -1 500.901 611.798   6
 -10  -3   1 770.498 614.986   4
  10   3   1 157.235 667.886   4
  10  -3  -1 821.134 576.827   1
  10   3   2 8293.92 1206.18   5
 -10   3  -2 8364.05 1554.50   3
  10  -3  -2 7898.48 1002.40   7
  10  -3  -2 8840.33 823.605   4
 -10  -3   2 9745.58 1388.83   4
 -10  -3   2 6213.95 1328.08   2
  10  -3  -2 9417.05 1347.93   2
 -10   3  -2 6942.71 1247.78   6
  10   3   2 6963.10 1185.97   4
  10  -3  -2 8612.19 1247.19   1
 -10   3  -3 23643.7 2903.97   3
  10   3   3 22127.1 2093.75   4
  10  -3  -3 23481.1 2059.54   7
 -10   3  -3 24440.4 2345.86   6
 -10  -3   3 22248.4 2427.01   2
  10  -3  -3 21230.3 2049.93   5
  10  -3  -4 9638.20 1710.05   5
 -10  -3   4 10235.7 1788.06   2
  10  -3  -4 10465.6 1716.30   7
  10   3   4 9857.29 1499.44   4
  10  -3  -5 8806.44 1747.04   5
 -10  -3   5 10145.9 1839.27   2
  10   3   5 13382.8 1827.48   4
  10  -3  -5 9910.94 1861.47   7
 -10  -3   6 1069.33 779.936   2
  10   3   6-66.6179 922.141   4
  10  -3  -6-327.467 1171.54   7
  10   4  -6 1821.37 1103.90   7
  10  -4   6 2457.49 1658.90   4
 -10  -4  -6 3054.14 1093.22   5
 -10  -4  -5 794.872 886.623   5
  10  -4   5-367.242 1403.60   4
  10   4  -5 1702.77 1219.86   7
 -10   4   5 3606.31 897.405   6
 -10  -4  -4 421.820 767.898   5
 -10  -4  -4 140.301 1305.23   3
  10  -4   4 394.010 759.599   4
  10   4  -4-455.076 1028.55   7
  10  -4   4 1705.77 742.807   7
 -10   4   4-36.7938 745.325   6
 -10  -4  -3 1050.87 855.686   5
  10  -4   3 1463.05 493.817   7
 -10  -4  -3 1214.62 409.782   2
 -10  -4  -3 871.123 1112.94   3
  10   4  -3 907.445 230.594   1
  10  -4   3 7.34305 1023.27   4
 -10   4   3 2039.24 676.320   7
  10   4  -3 2179.70 1048.44   7
 -10  -4  -3 1577.44 773.776   4
 -10   4   3 1813.33 961.729   6
 -10  -4  -2 9074.13 1371.85   5
 -10  -4  -2 11121.1 1428.27   4
 -10   4   2 7841.27 945.731   7
  10  -4   2 9050.33 1499.40   4
 -10  -4  -2 10393.5 1163.25   2
  10   4  -2 13191.7 1695.62   7
 -10   4   2 8965.90 1514.88   6
 -10  -4  -2 9377.69 1601.93   3
 -10  -4  -1 6921.13 1170.35   4
 -10   4   1 8116.51 614.111   7
 -10  -4  -1 7200.80 1100.50   2
  10  -4   1 8230.00 1272.86   4
 -10   4   1 7594.65 1424.66   6
 -10  -4  -1 7075.99 1022.00   5
  10   4   0 2333.17 453.833   5
  10  -4   0 2816.70 780.016   1
 -10  -4   0 2624.57 799.372   2
 -10   4   0 2119.22 859.381   6
 -10  -4   0 2461.97 734.406   4
  10  -4   0 1411.76 621.008   4
  10   4   0 2211.64 961.963   4
 -10   4  -1 8219.80 1391.11   3
  10  -4  -1 7311.60 890.614   4
 -10  -4   1 8830.43 1446.18   2
 -10   4  -1 6751.79 1400.37   6
  10   4   1 8006.94 1391.42   4
  10   4   1 7625.75 1014.52   5
  10   4   2 9580.03 1370.08   5
 -10   4  -2 9928.21 1708.52   3
  10  -4  -2 9975.78 797.465   4
 -10  -4   2 9995.56 1679.52   2
 -10   4  -2 8040.30 1481.60   6
  10   4   2 9901.22 1481.02   4
 -10  -4   3 7.64729 638.080   2
  10  -4  -3 1288.96 982.993   5
 -10   4  -3 971.218 1272.27   3
 -10   4  -3 707.410 755.100   6
  10   4   3 428.130 808.329   4
  10  -4  -4 597.071 846.423   5
 -10  -4   4 777.482 912.795   2
  10   4   4 678.970 728.137   4
  10  -4  -5 1696.34 972.163   5
 -10  -4   5-418.730 841.517   2
  10   4   5 33.8567 652.046   4
  10  -4  -6 2142.47 1173.04   5
 -10  -4   6 3275.04 1528.55   2
  10   4   6 2666.75 907.257   4
 -10  -5  -5 510.063 836.110   5
  10  -5   5-435.152 1275.34   4
  10   5  -5 900.222 1116.88   7
 -10   5   5 1771.88 770.916   6
 -10  -5  -4 9738.04 1824.00   5
 -10  -5  -4 8714.58 1988.80   3
  10  -5   4 9300.46 1868.72   4
 -10   5   4 8990.28 1630.21   6
  10   5  -4 6406.89 1758.31   7
 -10  -5  -3 4365.24 1184.37   5
 -10  -5  -3 3737.22 1232.96   3
 -10  -5  -3 3756.03 726.916   2
  10  -5   3 3653.99 1217.58   4
  10   5  -3 4429.41 1284.69   7
 -10  -5  -3 3458.85 780.159   6
 -10   5   3 899.916 910.677   6
 -10   5   3 3689.23 964.131   7
 -10  -5  -2 13270.9 1800.82   3
 -10  -5  -2 10021.1 1498.54   5
  10  -5   2 14012.0 1923.51   4
 -10   5   2 12825.7 1196.07   7
 -10   5   2 14420.4 2024.22   6
 -10  -5  -2 13119.1 1428.58   2
  10   5  -2 13472.0 1861.44   7
 -10  -5  -1-34.0863 476.189   5
  10  -5   1 333.029 716.377   4
 -10   5   1 475.622 223.039   7
 -10  -5  -1 230.952 540.624   2
 -10   5   1 262.578 458.448   6
 -10   5   0 1658.45 665.031   3
  10  -5   0 1331.23 654.111   4
 -10  -5   0 2902.15 876.600   2
 -10   5   0 1281.73 688.245   6
  10   5   0 621.860 1004.91   4
 -10  -5   0 1146.31 396.004   5
  10   5   1 167.801 348.570   5
 -10   5  -1 226.023 666.662   3
 -10   5  -1-258.928 952.178   6
  10  -5  -1 605.301 491.411   4
 -10  -5   1-1768.12 973.322   2
  10   5   1 528.310 820.021   4
 -10   5  -2 13716.3 2101.68   6
 -10   5  -2 14041.5 2149.00   3
  10  -5  -2 12934.8 890.834   4
  10   5   2 13611.6 1874.87   4
 -10  -5   2 12125.3 1983.24   2
  10   5   2 13332.3 1599.40   5
  10  -5  -2 15528.6 1965.07   5
  10  -5  -3 4887.61 1226.53   5
 -10  -5   3 3940.56 1281.14   2
 -10   5  -3 3137.96 1200.16   6
  10   5   3 3650.21 1123.02   4
  10  -5  -4 7288.02 1781.52   5
 -10  -5   4 9643.34 1803.61   2
  10   5   4 7933.62 1476.61   4
  10  -5  -5 1756.70 931.235   5
 -10  -5   5 183.079 1206.66   2
  10   5   5 251.784 868.982   4
 -10  -6  -5-674.429 950.799   5
  10  -6   5 445.189 1241.92   4
  10   6  -5 115.680 853.517   7
 -10   6   5 3253.37 1045.22   6
 -10  -6  -4 1643.17 1124.97   5
 -10  -6  -4 1178.45 1096.67   3
  10  -6   4 515.436 880.329   4
  10   6  -4-127.733 920.361   7
 -10   6   4 388.994 641.368   6
 -10  -6  -3 9059.07 1601.68   5
 -10  -6  -3 11552.6 1836.31   3
  10  -6   3 9434.91 2012.64   4
  10   6  -3 9798.43 1790.65   7
 -10  -6  -3 9679.26 1281.17   2
 -10   6   3 11295.9 1884.12   6
 -10  -6  -2 958.329 646.375   5
 -10  -6  -2 637.560 871.347   3
  10  -6   2 81.7457 730.643   4
 -10  -6  -2 209.676 525.285   2
 -10   6   2 1628.48 911.442   6
  10   6  -2 560.260 423.115   1
  10   6  -2 237.052 746.623   7
 -10  -6  -1 1719.73 641.846   5
 -10   6   1 1133.88 484.142   3
  10  -6   1 2119.57 776.093   4
 -10   6   1 1256.98 286.568   7
 -10  -6  -1 978.344 867.707   2
 -10   6   1 1986.26 748.070   6
 -10  -6   0 145.644 368.537   5
 -10   6   0 1337.43 550.620   3
  10  -6   0 816.236 573.919   4
 -10  -6   0 83.6472 842.682   2
 -10   6   0 784.808 736.590   6
 -10   6  -1 1206.08 836.655   3
  10  -6  -1 1110.30 469.916   4
 -10  -6   1 1854.24 967.233   2
 -10   6  -1 1418.01 903.818   6
  10  -6  -2 1408.95 930.794   5
 -10   6  -2 695.515 1011.73   3
 -10  -6   2 1391.73 995.251   2
  10  -6  -2 447.370 284.893   4
 -10   6  -2-494.137 931.957   6
  10   6   2 259.170 892.653   4
  10  -6  -3 9328.98 1791.22   5
 -10  -6   3 11916.5 2235.28   2
  10   6   3 9935.01 1793.03   4
  10  -6  -4 718.521 961.249   5
 -10  -6   4 1092.77 899.477   2
  10   6   4 1193.04 868.517   4
  10  -6  -5 613.491 706.790   5
 -10  -6   5 454.016 1109.73   2
  10   6   5 1117.07 804.439   1
 -10  -7  -4-599.866 1322.18   5
  10   7  -4 1449.25 940.915   7
 -10   7   4 260.004 639.339   6
  10  -7   4 2214.72 1170.09   4
 -10  -7  -3 2290.25 933.505   5
  10  -7   3 1679.43 1073.11   4
 -10   7   3 1402.11 961.225   6
  10   7  -3 732.098 831.845   7
 -10  -7  -2 314.989 627.949   5
  10  -7   2 3281.05 1245.80   4
  10   7  -2 2517.83 1169.65   7
 -10  -7  -2 1787.47 953.056   2
 -10   7   2 1967.95 959.410   6
 -10  -7  -1 89.7413 681.588   5
  10  -7   1 87.2934 768.662   4
 -10   7   1 239.182 734.953   6
 -10  -7  -1 645.981 856.062   2
  10   7  -1-538.875 502.428   1
 -10  -7   0 837.341 498.762   5
 -10   7   0 519.534 572.886   3
  10   7   0 1150.19 750.410   1
 -10   7   0 340.020 929.197   6
  10  -7   0 1112.52 776.786   4
 -10  -7   0 1537.87 1113.40   2
  10  -7  -1 450.885 474.731   4
 -10   7  -1 1492.63 926.449   6
 -10  -7   1 104.645 1069.80   2
  10   7   1 91.4460 792.311   1
  10  -7  -2 2059.39 1013.16   5
 -10  -7   2 2333.43 1344.41   2
  10   7   2 1714.44 812.976   1
  10  -7  -3 3235.71 1160.74   5
 -10  -7   3 1942.77 1317.28   2
  10   7   3 1261.97 1022.54   1
  10   7   3 863.554 1162.92   4
  10  -7  -4 3053.95 1348.57   5
  10   7   4 1201.01 858.581   1
 -10  -7   4 2619.26 1441.05   2
 -10  -8  -3 1753.80 708.325   5
  10   8  -3 1626.23 1101.15   7
 -10   8   3 594.441 612.698   6
 -10  -8  -2 933.190 769.389   5
  10   8  -2 757.829 876.474   7
 -10   8   2 1881.43 1012.56   6
 -10  -8  -2-680.677 959.870   2
 -10  -8  -1-991.571 699.330   5
  10   8  -1 430.650 375.878   1
 -10   8   1-710.586 923.535   6
  10  -8   1-237.224 1012.60   4
 -10  -8  -1 358.587 1055.43   2
  10  -8   0-2562.25 1004.12   4
 -10   8   0 200.633 801.152   6
 -10  -8   0-1551.66 1129.96   2
  10   8   0 242.148 791.682   1
  10  -8  -1 419.731 743.346   5
 -10  -8   1-1015.98 1213.65   2
  10   8   1-1763.14 1165.75   1
  10  -8  -2 1113.68 786.074   5
 -10  -8   2-5.95776 1160.04   2
  10   8   2 394.873 704.065   1
  10  -8  -3-2208.49 1193.02   5
 -10  -8   3-395.730 738.181   2
  10   8   3-1352.35 947.817   1
  10   9   0 1846.16 1066.71   1
 -10  -9   0 2805.17 1435.86   2
  11   0   0-12.9987 433.136   2
  11   0   0-1242.70 745.256   4
 -11   0   0-58.1342 329.188   4
 -11   0   0 38.0767 516.699   2
 -11   0  -1 29111.6 2080.48   4
 -11   0   1 27008.8 1798.42   4
  11   0  -1 25142.9 1796.34   4
 -11   0  -1 26115.8 1634.49   2
  11   0  -1 24615.9 1606.49   7
 -11   0   1 23658.7 1906.53   2
  11   0   1 24730.9 1681.12   2
 -11   0  -1 22590.9 1825.32   6
 -11   0  -2 21097.9 1955.25   4
 -11   0   2 18399.9 1560.73   4
  11   0  -2 18894.0 1654.46   7
  11   0  -2 22251.2 1773.22   4
 -11   0   2 21351.2 1940.19   2
  11   0   2 20084.8 1417.94   2
 -11   0  -2 21444.2 1729.77   6
  11   0   2 21401.2 1789.38   5
 -11   0  -3 11738.9 2117.50   3
 -11   0  -3 15205.3 1858.56   4
  11   0  -3 12703.0 1262.76   1
  11   0   3 12531.8 1639.04   4
 -11   0   3 13208.0 1358.62   4
  11   0  -3 13402.4 1662.94   7
 -11   0   3 13174.0 1486.85   7
  11   0   3 13521.6 1071.21   2
 -11   0   3 15074.5 1750.93   2
  11   0  -3 12916.5 1646.79   2
 -11   0  -3 13416.1 1315.34   6
  11   0  -3 13364.7 1324.01   5
  11   0  -4 16574.3 1548.86   1
 -11   0  -4 18517.5 2785.89   3
  11   0   4 16553.1 2016.07   4
 -11   0   4 15743.1 1654.12   4
  11   0  -4 17613.0 2149.35   7
 -11   0   4 18350.5 2109.95   2
  11   0   4 17807.9 1081.00   2
 -11   0  -4 18058.9 1516.40   6
  11   0  -4 16664.0 1712.83   5
 -11   0   5 11576.2 1895.57   2
  11   0  -5 12419.5 1831.39   5
  11   0  -5 14986.1 2281.74   7
  11   0   5 14712.9 2174.82   4
 -11   0  -5 8360.56 2134.86   3
 -11   0   5 12318.1 1515.06   4
  11   0  -6 3617.99 1189.94   5
  11   0  -6 2689.04 1406.44   7
  11   0   6 4645.68 1550.37   4
 -11   0   6 4295.78 1317.87   2
  11   1  -6 4717.72 1076.80   5
  11  -1   6 2689.24 1323.08   4
  11   1  -6 4819.76 1566.98   7
 -11   1   6 1566.95 963.909   2
  11   1  -5 6234.08 1128.93   5
 -11  -1  -5 3248.86 1999.61   3
  11   1  -5 5945.74 1638.29   7
  11  -1   5 5192.75 1564.50   4
 -11   1   5 5915.94 1032.06   4
 -11   1   5 5968.67 1401.41   2
  11   1  -4 2539.20 571.739   1
  11   1  -4 1824.61 670.013   5
 -11  -1  -4 3064.10 1408.25   3
  11  -1   4 2511.71 798.419   7
  11   1  -4 2312.52 936.003   7
  11  -1   4 1821.39 929.811   4
 -11  -1  -4 1708.69 466.737   6
 -11   1   4 2029.79 527.989   4
  11  -1   4 1737.83 519.528   2
 -11   1   4 2683.89 932.569   2
 -11  -1  -3 7764.33 1665.08   3
  11   1  -3 9655.95 1000.93   1
 -11   1   3 8732.55 1042.91   4
  11  -1   3 7866.88 1081.92   7
  11  -1   3 9530.90 1043.10   2
 -11   1   3 9060.31 1298.79   7
 -11  -1  -3 9728.99 1388.44   4
  11   1  -3 8590.16 1360.63   7
  11  -1   3 8218.75 1413.87   4
 -11  -1  -3 8732.60 1007.34   6
 -11   1   3 8014.31 1413.13   2
  11   1  -3 8506.91 952.293   5
 -11   1   2 43313.6 2187.34   7
 -11  -1  -2 47262.8 2837.57   4
 -11   1   2 42264.5 2131.80   4
 -11  -1  -2 44193.2 1790.00   2
  11   1  -2 44085.7 2710.03   4
 -11   1   2 44845.0 2678.51   2
  11   1  -2 46721.8 2547.28   7
 -11  -1  -2 41624.5 2224.54   6
  11  -1   2 38924.7 2073.35   2
  11   1  -2 42299.2 1655.49   5
 -11  -1  -1 47313.9 2617.24   4
 -11   1   1 41896.3 2140.17   4
  11   1  -1 45059.4 2557.31   4
 -11   1   1 44231.6 2523.54   2
  11   1  -1 47405.6 2402.66   7
  11  -1   1 44803.8 2307.84   2
 -11  -1  -1 46871.4 2146.34   2
  11  -1   0 1240.39 533.593   2
 -11  -1   0 545.404 480.894   2
  11   1   0 1002.08 547.368   2
 -11   1   0 937.216 465.094   4
 -11  -1   0 575.442 424.508   4
  11  -1   0 839.581 510.146   4
 -11   1   0 1047.60 619.243   2
 -11   1   0 1295.60 771.978   6
 -11   1  -1 43696.2 2559.32   4
 -11  -1   1 45598.5 2488.19   4
  11  -1  -1 45453.2 2218.48   4
  11  -1  -1 44394.6 1961.21   7
 -11  -1   1 41185.5 2530.12   2
  11   1   1 43564.0 2240.12   2
 -11   1  -1 48662.1 2676.39   6
  11   1   1 43743.2 2216.46   5
 -11   1  -2 41636.5 2787.47   4
  11   1   2 40361.1 2524.02   4
 -11  -1   2 43722.9 2483.94   4
  11  -1  -2 43243.2 2208.05   4
  11  -1  -2 38799.2 2261.52   7
 -11  -1   2 44770.9 2814.13   2
 -11   1  -2 40143.6 2454.28   6
  11  -1  -2 41686.4 2246.24   1
  11   1   2 44324.1 1963.80   2
  11   1   2 39852.5 2508.59   5
 -11  -1   3 9191.24 1509.62   2
  11  -1  -3 7272.44 1147.80   5
 -11   1  -3 5784.05 1572.58   3
  11  -1  -3 9899.48 1245.25   1
  11  -1  -3 8382.46 1365.14   2
 -11  -1   3 9369.07 1314.35   4
  11  -1  -3 9801.77 1373.42   7
  11   1   3 9796.29 791.397   2
 -11   1  -3 9022.00 1213.00   6
  11   1   3 8718.58 1428.62   4
  11  -1  -4 1879.90 658.159   1
 -11  -1   4 1742.91 1040.96   2
  11  -1  -4 2552.86 812.343   5
 -11   1  -4 3137.16 1341.37   3
  11  -1  -4 2106.48 1056.02   7
  11   1   4 2469.70 1096.89   4
 -11   1  -4 1461.42 717.524   6
 -11  -1   4 3228.63 850.741   4
  11  -1  -5 7891.43 1541.34   5
 -11  -1   5 6106.63 1475.23   2
  11  -1  -5 8552.52 1866.12   7
  11   1   5 5091.02 1484.03   4
 -11  -1   6 3665.96 1183.65   2
  11  -1  -6 1779.95 1077.03   5
  11  -1  -6 3549.10 1380.52   7
  11   1   6 3418.02 1342.95   4
  11  -2   6 1534.86 1247.96   4
 -11   2   6 2910.02 968.248   2
 -11   2   6 1554.19 960.277   6
  11   2  -6 3643.58 1368.52   7
  11   2  -5 5733.82 984.967   5
  11  -2   5 5884.21 1564.78   4
 -11  -2  -5 4709.42 1990.01   3
  11   2  -5 7079.97 1694.07   7
 -11   2   5 6250.32 1371.04   2
 -11  -2  -4 21511.2 2975.88   3
  11  -2   4 21314.6 2525.87   4
 -11   2   4 23293.5 1477.37   4
  11  -2   4 22202.4 2002.32   7
 -11   2   4 22257.3 2289.65   2
 -11  -2  -4 24366.6 1033.96   6
  11  -2   4 24763.5 2251.49   6
  11   2  -4 22868.9 1559.87   5
  11   2  -4 25151.9 2600.55   7
  11   2  -4 20918.8 1284.04   1
 -11  -2  -3 19015.7 2384.61   3
 -11  -2  -3 19381.2 2016.64   4
  11  -2   3 18743.1 2066.03   4
 -11   2   3 18207.6 1329.39   4
  11  -2   3 18720.1 1587.62   2
  11   2  -3 18616.1 1236.93   1
 -11   2   3 18336.3 1941.18   2
  11   2  -3 17317.9 2005.85   7
 -11   2   3 19172.2 1691.76   7
 -11  -2  -3 20148.7 1367.71   6
  11  -2   3 20053.8 1991.10   6
  11   2  -3 17218.2 1077.66   5
  11  -2   3 17933.1 1551.51   7
  11  -2   2 6585.73 1010.45   2
 -11  -2  -2 8996.93 1278.95   4
 -11   2   2 5901.85 797.320   4
 -11   2   2 7521.62 899.122   7
 -11  -2  -2 6752.10 774.551   2
  11  -2   2 6988.69 1249.26   4
  11   2  -2 6637.99 1131.44   7
 -11   2   2 5717.22 1070.32   2
  11   2  -2 5137.88 1144.55   2
  11  -2   2 5689.21 1159.66   6
 -11   2   2 5196.86 1117.76   6
  11  -2   2 7137.24 811.370   7
  11   2  -2 6369.27 512.463   5
  11   2  -2 5975.97 1289.73   4
 -11   2   1 18701.9 1465.76   4
  11  -2   1 21287.3 1822.96   4
 -11  -2  -1 23570.3 1910.91   4
 -11  -2  -1 19105.1 1484.24   2
 -11   2   1 16551.3 1649.56   2
 -11   2   1 18279.7 1872.35   6
  11   2  -1 20395.0 1955.64   2
  11  -2   1 22145.5 1728.13   2
 -11  -2   0 7371.01 1091.60   2
 -11   2   0 6190.88 996.029   4
  11  -2   0 6339.09 972.117   4
  11   2   0 6838.48 1086.89   2
 -11  -2   0 6182.21 1014.09   4
 -11   2   0 5306.18 1115.94   6
  11  -2   0 7222.44 594.493   7
  11   2   0 6717.02 781.751   5
 -11   2  -1 18545.8 1785.29   4
  11  -2  -1 19964.7 1434.40   4
 -11  -2   1 18014.4 1678.58   4
  11  -2  -1 19966.5 1288.24   7
 -11   2  -1 18208.3 1842.34   6
  11   2   1 19765.3 1569.01   2
  11   2   1 18083.1 1531.07   5
 -11  -2   1 18104.2 1830.92   2
  11   2   2 8040.14 1241.96   5
  11  -2  -2 7130.82 1228.12   2
 -11   2  -2 7724.59 1543.60   3
  11  -2  -2 6253.06 992.794   1
 -11  -2   2 8723.60 1225.18   4
  11  -2  -2 5731.25 821.997   4
 -11   2  -2 8561.74 1416.56   4
  11  -2  -2 6932.29 989.942   7
 -11  -2   2 9524.83 1414.40   2
  11   2   2 5692.78 1058.80   4
 -11   2  -2 7686.39 1245.88   6
 -11   2  -3 18863.2 2562.38   3
  11  -2  -3 16241.8 1694.77   1
  11   2   3 17667.2 1856.46   4
 -11  -2   3 18366.8 2144.97   2
  11  -2  -3 17438.0 1865.30   7
 -11   2  -3 19889.7 1963.82   6
  11  -2  -3 17016.1 1772.53   5
 -11   2  -4 20679.8 3036.99   3
  11   2   4 21832.3 2266.82   4
  11  -2  -4 22652.1 2457.41   7
 -11  -2   4 22519.9 2471.36   2
 -11   2  -4 23372.1 2188.15   6
  11  -2  -4 19704.7 2155.41   5
  11  -2  -5 6725.02 1516.96   5
 -11  -2   5 5244.72 1524.63   2
  11  -2  -5 6850.99 1627.13   7
  11   2   5 6250.97 1486.99   4
  11  -2  -6 2642.76 1268.76   5
 -11  -2   6 1222.59 874.416   2
  11  -2  -6 2391.57 1374.71   7
  11   2   6 1685.72 1096.19   4
  11   3  -6 45.8515 718.670   7
  11  -3   6 1422.39 1262.90   4
 -11   3   6 643.270 757.611   6
 -11  -3  -5 407.027 1189.76   3
  11   3  -5 1617.66 1155.81   7
  11  -3   5 2498.97 1160.08   4
 -11   3   5 1820.89 938.854   6
 -11  -3  -5 1861.96 1215.43   5
  11   3  -4 1394.35 1103.59   7
  11  -3   4 1374.80 806.407   7
 -11  -3  -4 1948.07 1344.93   3
  11  -3   4 1907.64 1330.62   4
 -11   3   4 1203.51 289.539   4
 -11   3   4 2348.57 913.140   6
  11   3  -4 1601.84 279.898   1
 -11  -3  -4 1493.15 915.280   5
 -11  -3  -3 16849.7 2343.71   3
 -11   3   3 22557.6 1243.78   4
  11  -3   3 22536.5 2447.37   4
 -11  -3  -3 23891.8 2243.08   4
  11  -3   3 23067.4 1601.06   7
 -11  -3  -3 24384.7 1037.72   2
 -11   3   3 22523.7 1829.49   7
  11   3  -3 22586.3 2263.26   7
 -11   3   3 21601.4 2294.21   6
  11   3  -3 22269.2 1169.36   1
 -11  -3  -3 21008.5 2172.43   5
 -11   3   2 26709.8 1559.01   4
  11  -3   2 24928.0 2274.50   4
 -11  -3  -2 26655.2 2218.78   4
  11  -3   2 25472.8 1219.32   7
 -11   3   2 25459.4 1568.18   7
  11   3  -2 24196.7 2136.44   7
 -11  -3  -2 24239.3 1550.07   2
 -11   3   2 26987.9 2469.03   6
  11  -3   2 27243.3 2395.16   6
 -11   3   1 30424.2 1943.36   4
  11  -3   1 30666.0 2283.48   4
 -11  -3  -1 29857.8 2242.51   4
 -11  -3  -1 31431.7 2028.56   2
 -11   3   1 30742.1 2490.38   6
  11  -3   1 34358.5 2633.50   6
  11  -3   1 33278.5 2254.20   2
 -11   3   0 198596. 5321.46   4
  11  -3   0 201709. 4918.70   4
 -11  -3   0 196172. 5561.77   4
  11  -3   0 210787. 5646.57   2
  11   3   0 209130. 5987.99   4
 -11  -3   0 204375. 5512.14   2
 -11   3   0 208834. 6207.35   6
  11   3   0 205386. 3814.47   5
 -11   3  -1 31028.9 2579.72   3
 -11  -3   1 32229.3 2483.67   2
  11  -3  -1 34029.0 1820.69   4
 -11  -3   1 30455.9 2306.83   4
  11  -3  -1 32456.8 1494.17   7
  11  -3  -1 32379.6 2205.77   1
  11   3   1 31418.9 2373.44   4
  11  -3  -1 28675.3 2291.75   2
 -11   3  -1 33583.3 2626.81   6
  11   3   1 32397.5 1997.51   5
 -11   3  -2 25862.4 2674.42   3
  11   3   2 23182.2 2064.26   4
  11  -3  -2 25806.3 1432.94   4
  11  -3  -2 24451.6 1758.62   7
 -11  -3   2 26418.9 2428.22   2
 -11   3  -2 27213.0 2389.31   6
  11   3   2 26786.4 2178.75   5
 -11   3  -3 20504.7 2775.12   3
  11   3   3 27083.8 2330.56   4
  11  -3  -3 21430.9 1979.12   7
 -11  -3   3 20757.5 2328.76   2
 -11   3  -3 22457.7 2279.69   6
  11  -3  -3 22915.7 2227.30   5
  11  -3  -4 493.232 873.663   5
 -11   3  -4 1994.09 1524.97   3
 -11  -3   4 1233.35 1026.19   2
  11  -3  -4 1380.76 784.521   7
  11   3   4 2377.57 946.928   4
  11  -3  -5 3115.79 1070.94   5
 -11  -3   5 2906.74 1053.34   2
  11  -3  -5 2767.53 1229.57   7
  11   3   5 1976.02 963.643   4
  11  -3  -6 2589.39 943.378   5
 -11  -3   6-261.157 691.064   2
  11  -3  -6 773.641 1129.92   7
  11   3   6-371.563 1040.57   4
  11   4  -6 1073.12 1156.63   7
  11  -4   6 1659.66 1348.00   4
 -11  -4  -6 2844.94 1308.78   5
 -11  -4  -5 973.415 1545.64   3
  11  -4   5 7289.08 1895.64   4
  11   4  -5 8182.07 1887.70   7
 -11   4   5 4148.98 1224.46   6
 -11  -4  -5 4560.81 1502.52   5
 -11  -4  -4 5549.16 1582.90   3
  11  -4   4 5856.88 1667.02   4
  11   4  -4 4666.74 1532.24   7
  11  -4   4 6500.90 1064.34   7
 -11   4   4 7527.21 1502.30   6
 -11  -4  -4 5769.22 1439.86   5
 -11  -4  -3 12450.5 2093.62   3
 -11   4   3 13338.4 1528.10   7
  11  -4   3 13471.3 1050.32   7
  11  -4   3 9076.43 1798.30   4
 -11  -4  -3 10497.7 871.115   2
  11   4  -3 9739.84 1675.25   7
 -11   4   3 11310.1 1809.84   6
 -11  -4  -3 11696.1 1800.00   5
  11  -4   2 11845.4 1716.44   4
 -11  -4  -2 12308.9 1299.27   2
 -11  -4  -2 14453.0 1643.02   4
  11   4  -2 14539.4 1795.58   7
 -11   4   2 12897.6 1149.52   7
 -11   4   2 11722.8 1728.25   6
 -11  -4  -2 11596.2 1466.94   5
  11  -4   1 19532.9 1954.60   4
 -11  -4  -1 20012.8 1992.01   4
 -11  -4  -1 18211.2 1728.31   2
 -11   4   1 21034.1 2234.34   6
 -11  -4  -1 16796.3 1498.63   5
  11   4   0 18494.0 2104.73   4
  11  -4   0 21779.1 1791.25   4
 -11  -4   0 16082.8 1798.87   2
 -11   4   0 20389.8 2231.81   6
  11   4   0 17109.7 1105.27   5
 -11   4  -1 17730.6 2157.09   3
  11  -4  -1 18072.2 1409.35   4
  11   4   1 18487.7 2011.82   4
 -11  -4   1 20689.3 2193.97   2
 -11   4  -1 18295.2 2116.67   6
  11   4   1 18413.3 1516.29   5
 -11   4  -2 11979.0 1967.39   3
  11  -4  -2 13752.5 1009.84   4
  11   4   2 13899.9 1765.25   4
 -11  -4   2 11157.8 1836.43   2
  11   4   2 14474.0 1603.12   5
  11  -4  -3 11334.5 1766.14   5
 -11   4  -3 10435.3 2076.32   3
 -11  -4   3 11315.1 2021.90   2
 -11   4  -3 9923.97 1728.85   6
  11   4   3 10669.7 1675.14   4
  11  -4  -4 7164.09 1513.76   5
 -11  -4   4 5318.28 1616.43   2
  11   4   4 5858.79 1290.43   4
  11  -4  -5 5261.52 1462.57   5
 -11  -4   5 5574.84 1367.93   2
  11   4   5 5046.36 1402.40   4
  11  -4  -6 704.074 1346.91   5
 -11  -4   6 4037.70 1335.03   2
  11   4   6 1424.12 578.579   4
 -11  -5  -5 1243.61 1214.30   5
  11  -5   5 1265.46 914.529   4
  11   5  -5 906.547 901.857   7
 -11   5   5 2148.63 774.973   6
 -11  -5  -4-81.2156 580.372   5
 -11  -5  -4 590.870 1108.72   3
  11  -5   4 1006.57 950.155   4
  11   5  -4 2270.13 1183.76   7
 -11   5   4 1245.69 801.392   6
 -11  -5  -3 2899.45 1119.28   5
 -11  -5  -3 5438.02 1382.72   3
  11  -5   3 4673.99 1424.48   4
 -11  -5  -3 1763.30 607.242   2
 -11   5   3 616.759 706.254   7
  11   5  -3 3482.33 1163.89   7
 -11   5   3 3946.19 1245.23   6
  11   5  -3 2931.93 364.814   1
 -11  -5  -2 7313.26 1307.01   5
 -11  -5  -2 7179.65 1541.64   3
 -11   5   2 8887.23 980.208   7
  11   5  -2 9667.26 1566.47   7
 -11  -5  -2 7391.10 1166.17   2
  11  -5   2 7827.46 1574.16   4
 -11   5   2 9541.11 1618.31   6
  11  -5   1 18898.4 2008.45   4
 -11   5   1 16574.2 704.673   7
 -11   5   1 15498.5 2114.97   6
 -11  -5  -1 19105.8 1917.99   2
 -11  -5  -1 19472.7 1700.08   5
 -11   5   0 6072.28 1158.62   3
  11  -5   0 5354.60 1043.39   4
 -11  -5   0 6548.24 1353.35   2
 -11   5   0 5558.77 1338.74   6
  11   5   0 5771.52 1381.77   4
 -11   5  -1 18505.3 2160.87   3
  11  -5  -1 17145.7 1467.57   4
  11   5   1 17865.1 2177.27   4
 -11   5  -1 16393.0 2302.83   6
 -11  -5   1 20112.5 2308.48   2
  11   5   1 17810.1 1506.65   5
  11  -5  -2 8998.89 1595.28   5
 -11   5  -2 8444.64 1799.71   3
  11  -5  -2 8604.20 795.504   4
 -11  -5   2 8194.93 1709.25   2
 -11   5  -2 7668.45 1582.60   6
  11   5   2 8970.74 1593.30   4
  11   5   2 9761.96 1366.76   5
  11  -5  -3 3047.85 1073.96   5
 -11   5  -3 722.776 1036.93   3
 -11   5  -3 2259.26 983.860   6
  11   5   3 2532.69 1017.12   4
 -11  -5   3 1892.89 1205.74   2
  11  -5  -4 2466.73 1230.07   5
 -11  -5   4 638.455 945.180   2
  11   5   4 2370.39 1070.22   4
  11  -5  -5 1275.39 1028.71   5
 -11  -5   5 166.831 983.543   2
  11   5   5 1776.52 885.821   4
 -11  -6  -5 824.344 1046.76   5
  11   6  -5 431.639 1188.62   7
 -11   6   5-761.993 716.326   6
 -11  -6  -4 4320.71 1389.80   5
 -11  -6  -4-285.397 1277.20   3
  11  -6   4 417.856 1273.66   4
  11   6  -4 1805.66 1017.53   7
 -11   6   4 2068.95 942.539   6
 -11  -6  -3 4228.79 1233.99   5
 -11  -6  -3 5898.26 1683.67   3
 -11  -6  -3 4351.44 966.121   2
  11  -6   3 4582.51 1644.42   4
 -11   6   3 4570.09 1385.39   6
  11   6  -3 3876.25 1418.44   7
 -11  -6  -2 15047.1 2014.53   3
  11  -6   2 18181.1 2353.19   4
  11   6  -2 15081.3 2059.99   7
 -11  -6  -2 16747.1 1856.11   2
 -11   6   2 14839.8 2208.42   6
 -11  -6  -2 14233.9 1867.97   5
  11   6  -2 15660.9 1332.24   1
 -11  -6  -1 1677.86 687.496   5
 -11   6   1 1173.43 627.871   3
  11  -6   1 2314.09 991.079   4
 -11  -6  -1 2980.14 1034.48   2
 -11   6   1 2691.54 1033.18   6
 -11   6   0 524.631 664.976   3
  11  -6   0 414.250 597.650   4
 -11  -6   0 504.338 679.312   2
 -11   6   0 433.656 694.343   6
 -11  -6   0 1571.40 374.965   5
 -11   6  -1 3668.68 983.513   3
  11  -6  -1 3442.32 827.145   4
 -11  -6   1 3034.08 1231.78   2
 -11   6  -1 1475.85 1166.24   6
  11   6   1 866.386 1216.02   4
  11  -6  -2 14125.4 2071.06   5
  11  -6  -2 15065.3 1027.32   4
  11   6   2 16933.3 2363.86   4
 -11  -6   2 14537.8 2402.02   2
 -11   6  -2 13511.8 2302.57   6
  11  -6  -3 4416.48 1425.32   5
 -11  -6   3 5663.66 1550.52   2
  11   6   3 3917.69 1352.60   4
  11  -6  -4 2827.01 1284.91   5
 -11  -6   4 1342.27 992.651   2
  11   6   4 4934.20 1265.39   4
  11  -6  -5 4766.99 1398.52   5
 -11  -6   5 1801.73 1196.15   2
 -11  -7  -4-2065.07 983.209   5
  11  -7   4 601.169 1026.90   4
  11   7  -4 286.316 624.377   7
 -11  -7  -3-105.210 924.578   5
  11  -7   3 597.124 846.262   4
  11   7  -3-129.972 769.744   7
 -11   7   3-1534.54 1118.96   6
 -11  -7  -2 2117.70 688.607   5
  11  -7   2 495.242 1004.88   4
 -11  -7  -2 1627.22 850.736   2
  11   7  -2 1877.13 1015.72   7
 -11   7   2 2282.51 1181.76   6
 -11  -7  -1 7786.19 1312.44   5
  11  -7   1 8532.05 1650.72   4
  11   7  -1 7458.93 1261.61   1
 -11  -7  -1 10695.5 1851.87   2
 -11   7   1 7335.49 1737.33   6
 -11   7   0 7715.83 1436.69   3
  11  -7   0 7944.27 1446.75   4
 -11  -7   0 9967.77 1939.72   2
 -11   7   0 10650.0 2021.70   6
  11   7   0 6731.37 1300.64   1
 -11  -7   0 8339.44 1013.42   5
  11  -7  -1 9291.52 1225.16   4
 -11  -7   1 8827.24 1950.82   2
 -11   7  -1 9520.49 2011.77   6
  11  -7  -2 866.764 985.257   5
 -11  -7   2 3390.62 1151.13   2
  11  -7  -3 460.820 761.167   5
  11   7   3 622.977 1007.76   4
  11   7   4 561.437 1034.52   1
 -11  -7   4 921.773 1073.56   2
 -11  -8  -2-430.723 708.576   5
  11  -8   2 685.009 591.476   4
  11   8  -2 425.906 778.762   7
 -11  -8  -2-1368.42 848.956   2
 -11   8   2-639.677 898.919   6
  11  -8   1 497.206 917.337   4
 -11  -8  -1 2618.63 1180.78   2
 -11   8   1 1185.35 963.023   6
  11  -8   0 909.768 832.052   4
 -11   8   0 2044.36 1224.59   6
 -11  -8   0 2801.61 1386.45   2
  11   8   0-71.0460 962.475   1
  11  -8  -1 284.708 941.535   5
  11   8   1 2641.67 1075.66   1
 -11  -8   1 486.036 1001.06   2
  11  -8  -2-707.045 1252.02   5
  11   8   2 662.476 1016.60   1
 -11  -8   2-922.078 870.079   2
 -12   0   0 58262.3 2842.25   4
  12   0   0 50572.8 2626.82   4
 -12   0   0 56669.6 2703.91   2
  12   0   0 56486.7 2802.53   2
 -12   0  -1 42656.8 2613.26   4
 -12   0   1 45249.3 2422.48   4
  12   0  -1 46031.6 2465.98   4
 -12   0  -1 40235.5 2086.89   2
  12   0  -1 43443.4 2151.79   7
 -12   0   1 42334.8 2561.23   2
  12   0   1 37531.7 2173.87   2
 -12   0  -1 35854.2 2384.26   6
 -12   0  -2 72480.4 3630.66   4
 -12   0   2 70984.4 3050.33   4
  12   0  -2 64486.1 3046.20   4
  12   0  -2 56998.0 2826.02   7
 -12   0   2 62489.1 3316.48   2
  12   0   2 59627.6 2539.05   2
 -12   0  -2 63646.9 2983.67   6
  12   0   2 59601.4 3029.05   5
 -12   0   3 537.970 783.093   2
  12   0   3 1285.57 486.890   2
 -12   0  -3 518.394 1120.02   3
  12   0  -3 1260.11 526.436   5
  12   0  -3 1298.00 521.037   1
  12   0  -3 1418.49 690.076   7
 -12   0   3 79.1529 700.877   7
  12   0   3 1011.94 690.990   4
 -12   0   3 862.812 421.909   4
 -12   0  -3 445.110 405.580   6
 -12   0   4 1565.54 943.953   2
  12   0   4 1506.08 397.539   2
  12   0  -4 1204.44 621.094   5
  12   0  -4 1930.87 529.642   1
 -12   0  -4 1924.73 1285.06   3
  12   0  -4 851.542 789.537   7
  12   0   4 1710.78 901.087   4
 -12   0  -4 1378.01 562.303   6
 -12   0   4 1978.58 582.808   4
  12   0  -5-42.8122 562.979   5
 -12   0  -5 6.80729 1360.65   3
  12   0  -5-507.212 1086.47   7
  12   0  -5 897.499 572.320   1
  12   0   5 534.748 850.081   4
 -12   0   5 689.297 746.515   2
  12   0  -6 1215.77 766.243   5
  12   0  -6 2174.95 1309.56   7
  12   0   6 281.789 1030.66   4
 -12   0   6 3040.79 1085.76   2
  12   1  -6 1357.16 673.990   5
  12   1  -6 1346.40 1065.43   7
  12  -1   6 1517.40 1252.73   4
 -12   1   6-68.8123 439.399   2
  12   1  -5 6063.48 1160.66   5
 -12  -1  -5 6441.00 2177.98   3
  12   1  -5 5110.82 1610.40   7
  12  -1   5 6518.86 1549.14   4
 -12   1   5 8014.02 1041.29   4
 -12   1   5 4068.26 1202.00   2
  12   1  -4 2997.09 801.855   5
  12   1  -4 2331.26 613.963   1
 -12  -1  -4 3208.37 1559.80   3
  12  -1   4 1944.53 842.686   7
  12   1  -4 1934.43 877.244   7
  12  -1   4 4727.66 1347.24   4
 -12  -1  -4 3280.93 578.070   6
 -12   1   4 3209.55 702.893   4
  12  -1   4 2456.24 588.080   2
 -12   1   4 2833.86 1003.88   2
 -12  -1  -3 17076.5 2416.45   3
  12  -1   3 16450.0 1965.36   4
 -12   1   3 17601.4 1502.14   4
  12   1  -3 17763.0 1395.27   1
  12  -1   3 16619.8 1529.34   7
  12   1  -3 13797.0 1742.92   7
  12  -1   3 18344.4 1486.76   2
 -12   1   3 19156.0 1746.51   7
 -12   1   3 15507.0 1877.84   2
 -12  -1  -3 18278.8 1498.16   6
  12   1  -3 16985.4 1335.98   5
 -12  -1  -2 26266.9 2193.42   4
  12  -1   2 26731.5 2273.78   4
 -12   1   2 22513.1 1669.12   4
 -12  -1  -2 25610.4 1492.43   2
  12   1  -2 20519.6 2050.93   4
  12   1  -2 25412.9 2022.09   7
 -12   1   2 22196.8 2059.21   2
  12  -1   2 23436.0 1734.90   2
 -12  -1  -2 25173.1 1877.73   6
  12   1  -2 23975.4 1326.65   5
 -12  -1  -1 15772.1 1684.12   4
 -12   1   1 16755.7 1472.08   4
  12  -1   1 14798.7 1538.43   4
  12   1  -1 14938.6 1596.32   4
 -12   1   1 14806.3 1557.47   2
  12   1  -1 16422.6 1522.71   7
 -12  -1  -1 15596.9 1381.99   2
  12  -1   1 16204.2 1494.13   2
  12   1  -1 15752.9 1683.63   2
  12   1   0 25907.6 2007.28   2
 -12   1   0 30173.2 2070.90   4
 -12  -1   0 28896.8 2049.91   4
  12  -1   0 24817.6 1836.27   4
 -12   1   0 26484.3 1883.77   2
 -12  -1   0 28593.8 1992.96   2
  12  -1   0 27548.2 2023.81   2
 -12   1   0 27241.0 2185.67   6
 -12   1  -1 15823.0 1662.86   4
 -12  -1   1 17728.2 1605.57   4
  12  -1  -1 14240.3 1364.51   4
  12  -1  -1 13731.1 1185.05   7
 -12  -1   1 16068.0 1654.90   2
  12   1   1 13644.9 1351.09   2
 -12   1  -1 16425.7 1679.99   6
  12   1   1 15141.9 1398.85   5
 -12   1  -2 25925.1 2577.97   3
 -12   1  -2 29225.5 2398.60   4
  12   1   2 24729.8 2055.45   4
 -12  -1   2 24835.4 2000.55   4
  12  -1  -2 24977.3 1791.58   4
  12  -1  -2 23396.2 1836.39   7
  12  -1  -2 26571.9 1889.62   1
 -12  -1   2 21146.7 2120.66   2
  12   1   2 25284.5 1622.37   2
 -12   1  -2 23808.5 1995.42   6
  12  -1  -2 27654.8 2297.18   2
  12   1   2 24088.1 2015.87   5
 -12   1  -3 15698.9 2333.66   3
 -12  -1   3 18836.4 2076.92   2
  12  -1  -3 19144.1 1699.58   1
  12   1   3 17129.9 1895.74   4
 -12  -1   3 16975.4 1733.86   4
  12  -1  -3 17730.3 1910.88   7
  12   1   3 18693.1 1185.70   2
 -12   1  -3 19157.9 1797.49   6
  12  -1  -3 18469.7 1672.85   5
 -12  -1   4 2591.12 1040.52   2
  12  -1  -4 4071.26 940.735   1
  12  -1  -4 3596.08 1003.56   5
 -12   1  -4 2982.62 1393.54   3
  12  -1  -4 3369.46 1118.53   7
  12   1   4 3468.82 1057.88   4
 -12   1  -4 2930.57 838.263   6
 -12  -1   5 5370.46 1578.34   2
  12  -1  -5 4918.50 1261.74   5
 -12   1  -5 1680.62 1386.08   3
  12  -1  -5 5108.54 1569.06   7
  12   1   5 6599.30 1579.66   4
 -12  -1   6-4.56107 462.384   2
  12  -1  -6 282.896 1037.78   5
  12  -1  -6 1654.26 995.410   7
  12   1   6 1383.93 1021.59   4
  12  -2   6 2781.67 1490.38   4
  12   2  -6 4021.16 1584.34   7
 -12   2   6 2777.64 1028.74   2
 -12   2   6 2798.84 1178.64   6
  12   2  -5 5489.48 1054.81   5
 -12  -2  -5 6150.01 1957.76   3
  12   2  -5 8718.55 1772.83   7
  12  -2   5 7317.73 1771.12   4
 -12   2   5 7412.87 1477.16   2
  12   2  -4 3404.62 742.528   5
  12   2  -4 4413.27 644.438   1
 -12  -2  -4 4814.85 1584.60   3
  12  -2   4 4073.28 930.337   7
 -12   2   4 2719.51 591.776   4
  12   2  -4 2462.37 1224.78   7
  12  -2   4 2959.81 795.940   2
 -12  -2  -4 2957.60 469.636   6
  12  -2   4 2191.11 1183.02   4
 -12   2   4 2935.33 971.087   2
  12  -2   4 4580.36 1170.87   6
  12   2  -3 946.807 355.109   5
  12   2  -3 766.916 449.137   1
 -12  -2  -3 544.064 1074.05   3
  12  -2   3 723.242 543.591   7
  12  -2   3 690.613 720.350   4
  12   2  -3-135.290 663.001   7
 -12   2   3 821.728 573.476   7
 -12   2   3 758.936 349.050   4
  12  -2   3 814.442 430.514   2
 -12   2   3-129.135 916.755   2
 -12  -2  -3 915.136 493.495   6
  12  -2   3 1172.97 636.406   6
  12  -2   2 2783.60 548.753   7
  12  -2   2 1455.39 894.967   4
  12   2  -2 2086.67 783.214   7
 -12  -2  -2 3103.80 822.785   4
 -12   2   2 1605.60 493.670   4
 -12   2   2 2410.38 602.369   7
 -12   2   2 2462.80 854.754   2
  12  -2   2 3488.19 828.459   2
 -12   2   2 2045.31 873.670   6
 -12  -2  -2 2826.56 559.253   2
  12   2  -2 3080.92 396.353   5
  12   2  -2 1935.05 989.872   4
 -12   2   1 19686.4 1588.32   4
  12  -2   1 20359.1 1843.55   4
 -12  -2  -1 23725.1 1999.49   4
 -12   2   1 20575.0 1865.29   2
  12   2  -1 15084.4 1763.26   4
  12  -2   1 21487.2 1804.16   2
 -12  -2  -1 21916.9 1640.15   2
  12   2  -1 19744.9 1953.61   2
 -12   2   1 18499.7 1964.75   6
  12   2   0 976.189 297.302   5
 -12  -2   0-41.1130 571.346   2
 -12   2   0 457.414 392.233   4
  12  -2   0 201.138 258.263   7
  12   2   0 756.826 443.644   2
  12  -2   0-54.4240 464.111   4
 -12  -2   0 1016.76 553.283   4
 -12   2   0 584.839 534.063   6
  12  -2   0 591.704 481.514   2
 -12   2  -1 20138.7 1892.91   4
  12  -2  -1 21013.7 1550.81   4
 -12  -2   1 23231.6 1978.50   4
  12   2   1 18854.7 1863.23   4
  12  -2  -1 19968.5 1333.10   7
 -12  -2   1 19880.1 1945.22   2
 -12   2  -1 15748.4 1745.95   6
  12   2   1 22003.7 1750.24   2
  12   2   1 19173.3 1588.89   5
  12   2   2 3516.43 907.850   5
 -12   2  -2 3532.40 1146.33   3
 -12  -2   2 2822.11 976.681   2
 -12   2  -2 2713.38 857.771   4
  12  -2  -2 2104.21 720.214   7
  12   2   2 2248.90 914.633   4
  12   2   2 1999.89 568.914   2
 -12   2  -2 3098.48 907.151   6
 -12  -2   2 3320.40 870.106   4
  12  -2  -2 2478.05 773.715   1
  12  -2  -2 2526.33 628.154   4
  12  -2  -3 1134.58 705.848   5
 -12   2  -3 1836.86 1153.64   3
 -12  -2   3 970.649 788.314   2
  12  -2  -3 882.078 632.004   7
  12   2   3 660.821 723.040   4
 -12   2  -3 658.919 612.168   6
  12  -2  -4 1983.96 1030.90   5
 -12  -2   4 3360.19 1135.34   2
 -12   2  -4 1685.28 1269.04   3
  12  -2  -4 2113.98 1099.12   7
  12   2   4 2810.97 1041.92   4
 -12   2  -4 2060.90 912.001   6
  12  -2  -5 7355.33 1591.11   5
 -12  -2   5 8110.62 1702.21   2
  12  -2  -5 6542.88 1736.32   7
  12   2   5 7969.62 1612.15   4
  12  -2  -6 3488.32 1419.95   5
 -12  -2   6 4377.52 1399.32   2
  12  -2  -6 4561.94 1456.27   7
  12   2   6 5716.64 1534.84   4
  12   3  -6 1141.86 1020.36   7
  12  -3   6 329.885 1139.09   4
 -12   3   6 841.515 939.367   6
 -12  -3  -5 2923.73 1647.90   3
  12  -3   5 2374.73 1392.13   4
  12   3  -5 3119.09 1574.37   7
 -12   3   5 3446.08 1054.09   6
 -12  -3  -4 15919.5 2700.08   3
 -12   3   4 16255.4 1008.74   4
  12  -3   4 17400.2 2397.11   4
  12  -3   4 16345.2 1608.71   7
  12   3  -4 15166.9 2240.35   7
 -12  -3  -4 15545.3 768.628   6
 -12   3   4 13561.9 1988.49   6
  12   3  -4 16030.8 949.194   1
 -12  -3  -3 11892.0 2154.89   3
 -12   3   3 11421.7 991.055   4
  12  -3   3 13401.4 1925.22   4
 -12  -3  -3 12196.6 842.459   2
  12  -3   3 11783.6 1190.04   7
 -12   3   3 14134.3 1469.67   7
  12   3  -3 11471.6 1791.75   7
 -12   3   3 12152.0 1764.13   6
 -12  -3  -2 1218.59 480.213   2
  12  -3   2 1823.43 771.653   4
 -12   3   2 2409.82 593.732   4
  12  -3   2 1720.18 402.423   7
 -12   3   2 1849.74 534.656   7
  12   3  -2 663.831 739.758   7
  12  -3   2 2244.35 749.589   2
 -12   3   2 2579.66 975.520   6
  12   3  -1 18066.8 2077.42   4
 -12   3   1 18346.8 1586.01   4
  12  -3   1 19664.8 1926.46   4
 -12  -3  -1 21678.5 2024.14   4
  12  -3   1 23818.0 2039.22   2
 -12  -3  -1 21773.4 1775.14   2
 -12   3   1 18109.5 2068.68   6
  12  -3   1 21916.1 2245.79   6
  12   3  -1 19707.5 760.916   5
 -12   3   0 8165.89 1204.76   4
  12  -3   0 8243.79 1154.32   4
 -12  -3   0 6064.97 1233.84   2
 -12  -3   0 9419.71 1368.27   4
 -12   3   0 8067.11 1527.59   6
  12  -3   0 7951.27 1303.27   2
  12   3   0 8403.95 1489.56   4
  12   3   0 8542.66 912.210   5
 -12   3  -1 21473.5 2093.85   4
  12  -3  -1 21130.3 1566.07   4
  12  -3  -1 20555.6 1256.28   7
  12   3   1 24108.6 2195.94   4
 -12  -3   1 19970.4 2107.24   2
 -12   3  -1 20035.4 2148.35   6
  12   3   1 21661.7 1724.74   5
 -12   3  -1 20695.3 2266.60   3
  12   3   2 1635.99 730.086   5
 -12   3  -2 1841.87 893.723   3
 -12  -3   2 1704.46 1032.15   2
  12  -3  -2 1701.80 613.338   7
 -12   3  -2 989.110 652.460   6
  12   3   2 516.039 626.839   4
  12  -3  -2 1940.51 545.884   4
  12  -3  -3 9945.14 1534.19   5
 -12   3  -3 12960.9 2363.80   3
 -12  -3   3 10771.8 1865.33   2
  12   3   3 11517.7 1690.77   4
  12  -3  -3 10951.8 1544.65   7
 -12   3  -3 11592.5 1739.97   6
 -12   3  -4 19266.5 2993.66   3
  12   3   4 15417.0 1990.75   4
  12  -3  -4 16429.1 2083.06   7
 -12  -3   4 16961.1 2331.28   2
 -12   3  -4 14896.5 1998.50   6
  12  -3  -4 18671.7 2235.89   5
  12  -3  -5 3330.09 1287.42   5
 -12  -3   5 3055.10 1243.95   2
  12  -3  -5 3114.37 1247.22   7
  12   3   5 3531.80 1156.93   4
  12  -3  -6 1305.17 1017.77   5
 -12  -3   6 3422.72 1464.97   2
  12  -3  -6 2702.88 1078.44   7
  12   3   6 1314.83 1115.65   4
  12   4  -6 4624.82 1923.75   7
  12  -4   6 5335.17 1725.97   4
 -12  -4  -6 4607.71 1800.33   5
  12  -4   5 1629.56 974.816   4
  12   4  -5 1166.66 1119.54   7
 -12   4   5 1922.18 701.055   6
 -12  -4  -5 537.960 1058.71   5
 -12  -4  -4-965.692 1068.45   3
  12  -4   4-518.952 746.394   4
  12   4  -4-68.0838 991.409   7
 -12   4   4 84.7505 667.915   6
 -12  -4  -4 93.3518 847.296   5
 -12  -4  -3 4010.17 613.356   2
 -12  -4  -3 4295.44 1413.12   3
  12  -4   3 3998.62 1367.86   4
 -12   4   3 3403.22 885.225   7
  12  -4   3 4652.84 649.413   7
  12   4  -3 6013.39 1374.07   7
 -12   4   3 4673.05 1159.52   6
 -12  -4  -3 2580.62 977.270   5
 -12  -4  -2 1046.15 548.060   2
  12  -4   2 1519.74 909.177   4
 -12   4   2 1327.06 470.552   7
  12   4  -2 1389.33 927.672   7
 -12   4   2 1424.83 863.668   6
 -12  -4  -2 2068.85 738.895   5
 -12  -4  -1 5893.88 1089.65   2
  12  -4   1 6176.41 1221.98   4
 -12   4   1 5883.86 1374.10   6
  12   4  -1 7538.73 1631.64   4
  12  -4   0 31218.2 2177.69   4
 -12  -4   0 26598.0 2325.41   2
 -12   4   0 27873.1 2636.40   6
  12   4   0 30729.1 1490.90   5
 -12   4  -1 8305.73 1539.85   3
  12   4   1 6818.10 1017.44   5
  12  -4  -1 7433.24 990.691   4
 -12  -4   1 6830.57 1365.48   2
 -12   4  -1 9512.25 1654.77   6
  12   4   1 6693.56 1390.88   4
  12   4   2 1351.69 668.486   5
 -12   4  -2 1770.38 1022.00   3
 -12  -4   2 143.389 1041.16   2
 -12   4  -2 113.289 996.980   6
  12  -4  -2 699.426 424.259   4
  12   4   2 770.737 834.561   4
  12  -4  -3 3929.89 1155.45   5
 -12   4  -3 4635.75 1340.47   3
 -12  -4   3 3677.22 1328.77   2
 -12   4  -3 5042.38 1377.07   6
  12   4   3 3996.13 1195.37   4
  12  -4  -4 186.642 788.488   5
 -12   4  -4-616.941 1096.50   3
 -12  -4   4 828.194 964.955   2
  12   4   4 405.637 799.506   4
  12  -4  -5 1185.71 1209.91   5
 -12  -4   5 400.776 980.592   2
  12   4   5 1058.65 867.717   4
  12  -4  -6 4310.77 1577.42   5
 -12  -4   6 7870.12 1802.38   2
  12   4   6 4578.89 1295.82   4
  12  -5   5 3030.90 1535.36   4
  12   5  -5 3884.30 1417.84   7
 -12   5   5 5702.31 1270.52   6
 -12  -5  -5 2165.77 1373.85   5
 -12  -5  -4 5568.55 1865.43   3
  12  -5   4 5347.41 1782.48   4
  12   5  -4 4641.67 1390.46   7
 -12   5   4 6255.76 1417.44   6
 -12  -5  -4 3780.95 1263.83   5
 -12  -5  -3 7210.50 1760.99   3
 -12  -5  -3 4802.62 856.402   2
  12  -5   3 4751.42 1286.41   4
 -12   5   3 4645.43 954.137   7
  12   5  -3 7099.83 1571.82   7
 -12   5   3 5070.31 1515.39   6
 -12  -5  -3 6435.88 1443.54   5
 -12  -5  -2 1072.47 610.108   2
  12  -5   2 1324.42 720.577   4
 -12   5   2 2047.00 502.266   7
 -12   5   2 1976.68 915.265   6
  12   5  -2 1854.09 834.606   7
 -12  -5  -2 1005.70 979.410   3
 -12  -5  -2 455.602 629.325   5
  12  -5   1 164.188 678.525   4
 -12  -5  -1 8.32891 650.504   2
 -12   5   1-439.130 656.762   6
 -12  -5  -1-940.148 570.819   5
 -12   5   0 3062.49 1062.18   3
 -12  -5   0 4395.70 1029.38   2
  12  -5   0 3860.70 877.600   4
 -12   5   0 3399.32 1185.20   6
  12   5   0 1048.47 1132.30   4
 -12   5  -1 495.277 753.621   3
  12   5   1 364.614 363.860   5
 -12  -5   1-1594.75 1023.62   2
  12  -5  -1 135.769 421.983   4
 -12   5  -1-1383.68 1005.12   6
  12   5   1-32.5097 874.603   4
  12   5   2 1255.41 708.885   5
 -12   5  -2 1989.85 1085.38   3
 -12  -5   2 2182.26 1113.95   2
 -12   5  -2 1213.18 1041.18   6
  12  -5  -2 946.629 388.713   4
  12   5   2 141.862 825.516   4
  12  -5  -3 6923.64 1477.40   5
 -12   5  -3 7182.28 1982.11   3
 -12  -5   3 5370.20 1754.77   2
 -12   5  -3 6751.32 1580.66   6
  12   5   3 4826.95 1252.81   4
  12  -5  -4 5436.18 1427.63   5
 -12  -5   4 2956.41 1308.23   2
  12   5   4 4097.74 1265.03   4
  12  -5  -5 4029.58 1681.77   5
 -12  -5   5 3409.94 1265.75   2
  12   5   5 1303.02 1094.87   4
 -12  -6  -4 724.440 740.581   5
 -12  -6  -4 30.5448 1308.13   3
  12  -6   4 521.543 1253.12   4
  12   6  -4 435.381 1023.44   7
 -12   6   4 1027.87 1115.03   6
 -12  -6  -3 1041.72 966.348   5
 -12  -6  -3 2701.30 1225.79   3
  12  -6   3 1342.11 1211.35   4
  12   6  -3-275.324 866.796   7
 -12   6   3 1907.30 1100.64   6
 -12  -6  -2 10443.7 1545.90   5
 -12  -6  -2 10419.9 1736.20   3
 -12  -6  -2 8303.67 1375.70   2
  12  -6   2 5180.87 1467.80   4
  12   6  -2 8645.02 1652.72   7
 -12   6   2 6728.48 1596.03   6
 -12   6   1 8691.42 1395.24   3
  12  -6   1 8404.40 1614.30   4
 -12  -6  -1 9711.39 1581.96   2
 -12   6   1 10047.1 1859.32   6
 -12  -6  -1 10242.0 1333.53   5
 -12   6   0 1480.45 826.444   3
  12  -6   0 881.756 586.702   4
 -12  -6   0-11.4218 805.764   2
 -12   6   0 2997.35 1092.05   6
 -12   6  -1 11731.6 1877.45   3
  12  -6  -1 9856.72 1239.97   4
 -12  -6   1 10111.8 1913.08   2
 -12   6  -1 9176.54 1981.90   6
  12   6   1 8453.06 1893.98   4
  12   6   1 10149.3 1208.13   5
  12  -6  -2 6781.63 1566.41   5
 -12   6  -2 7797.09 1810.12   3
 -12  -6   2 6222.49 1689.55   2
 -12   6  -2 7880.53 1849.58   6
  12   6   2 5768.31 1538.73   4
  12  -6  -3 1286.73 1088.13   5
 -12  -6   3 2702.66 1163.15   2
  12   6   3 168.183 970.468   4
  12  -6  -4 1121.73 596.935   5
 -12  -6   4 2309.58 1232.43   2
  12   6   4-26.4601 1088.72   4
 -12  -7  -4-1035.33 1012.58   5
  12  -7   4-224.244 1122.32   4
  12   7  -4 2230.33 1280.71   7
 -12   7   4 1519.64 1019.39   6
 -12  -7  -3 2196.76 1151.85   5
  12   7  -3 2611.69 1036.86   7
  12  -7   3 1221.17 1102.26   4
 -12   7   3 1905.04 1105.92   6
 -12  -7  -2 8749.58 1374.10   5
  12   7  -2 4069.80 1403.15   7
  12  -7   2 5284.57 1598.68   4
 -12  -7  -2 3517.37 1004.85   2
 -12   7   2 4671.61 1442.96   6
 -12  -7  -1 1066.84 625.376   5
  12  -7   1 651.682 928.811   4
 -12  -7  -1 752.653 906.348   2
  12   7  -1 478.976 594.634   1
 -12   7   1 607.270 728.889   6
 -12   7   0-475.524 630.106   3
  12  -7   0 88.9081 628.803   4
 -12  -7   0 182.091 885.016   2
 -12   7   0 194.699 932.986   6
 -12   7  -1-208.314 920.657   3
  12  -7  -1 189.244 561.853   4
 -12  -7   1 118.936 992.774   2
 -12   7  -1 2624.77 1212.46   6
  12  -7  -2 4211.37 1445.85   5
 -12  -7   2 4185.93 1593.96   2
 -12   7  -2 2136.70 1259.61   6
  12  -7  -3 1731.14 1051.36   5
 -12  -7   3 969.469 876.035   2
  12   7   3 4090.26 1290.66   4
  12  -7  -4 3300.89 1512.81   5
 -12  -7   4 4293.99 1628.48   2
  12  -8   2 1464.12 1185.63   4
  12   8  -2 18.2984 1109.61   7
 -12   8   2 623.053 1341.65   6
  12  -8   1 831.562 921.094   4
 -12  -8  -1 515.240 833.181   2
 -12   8   1-958.650 1230.20   6
  12  -8   0-1131.11 805.264   4
 -12  -8   0-595.587 906.318   2
 -12   8   0-940.174 1094.99   6
  12   8   0-126.146 791.476   1
 -12   8  -1 144.661 1130.05   6
  12   8   1 911.400 927.406   1
 -12  -8   1 5.68181 1029.00   2
  12  -8  -2 296.019 418.953   5
  12   8   2 1394.24 1179.75   1
 -12  -8   2 601.699 1524.74   2
  13   0   0 51.8011 460.422   2
 -13   0   0 350.400 366.440   4
  13   0   0-80.8962 650.845   4
 -13   0   0 348.795 490.901   2
  13   0   1 2774.37 711.692   2
  13   0  -1 2459.34 763.042   2
 -13   0  -1 3557.14 868.953   4
  13   0  -1 2501.63 659.496   7
 -13   0   1 3061.03 723.863   4
 -13   0  -1 2558.46 686.997   2
  13   0  -1 2600.08 746.253   4
 -13   0  -1 2048.01 793.240   6
 -13   0   1 2286.08 900.044   2
  13   0   2 11147.3 1537.49   4
 -13   0   2 9405.13 1253.85   4
  13   0  -2 10792.1 1404.49   4
  13   0  -2 9722.00 1278.08   7
 -13   0   2 12029.5 1613.30   2
  13   0   2 9424.80 1129.59   2
 -13   0  -2 10644.7 1518.43   4
 -13   0  -2 10558.8 1375.96   6
  13   0   2 9203.97 1277.60   5
 -13   0  -3 24162.3 2865.47   3
  13   0   3 27112.0 2477.31   4
  13   0  -3 28207.0 1980.43   1
 -13   0   3 25178.2 2031.12   4
  13   0  -3 27196.2 2342.03   7
 -13   0   3 25464.2 2418.92   2
  13   0   3 27600.5 1737.44   2
 -13   0  -3 28055.1 2104.10   6
  13   0  -3 25076.1 1830.12   5
  13   0  -4 4898.36 972.083   5
 -13   0  -4 6535.82 1910.46   3
  13   0  -4 4248.96 949.184   1
  13   0   4 6416.86 770.590   2
  13   0  -4 3605.58 1132.37   7
  13   0   4 5565.75 1357.13   4
 -13   0  -4 4799.01 870.386   6
 -13   0   4 5824.60 1059.80   4
 -13   0   4 3207.73 1052.87   2
  13   0  -5 3923.37 956.073   5
 -13   0  -5 2017.98 1669.69   3
  13   0  -5 1555.68 1153.43   7
  13   0   5 2652.92 1159.18   4
 -13   0   5 2990.27 984.266   2
  13   0  -6 1048.20 815.673   5
  13   0  -6-560.922 755.585   7
  13   0   6 1815.89 1179.60   4
 -13   0   6 855.111 1111.36   2
  13   1  -6-22.9496 1100.15   7
  13  -1   6 1332.96 1144.31   4
 -13   1   6-372.376 789.379   2
  13   1  -5 2258.93 861.799   5
 -13  -1  -5 3228.77 1753.18   3
  13   1  -5 750.306 1105.35   7
  13  -1   5 3377.82 1421.18   4
 -13   1   5 3787.63 1058.57   2
  13   1  -4 1701.54 616.690   5
 -13  -1  -4 2833.08 1578.06   3
  13   1  -4 1365.71 594.329   1
  13   1  -4 3077.95 1046.22   7
  13  -1   4 1884.96 944.140   4
 -13   1   4 1665.55 618.498   4
 -13  -1  -4 743.826 406.112   6
  13  -1   4 1885.31 538.752   2
 -13   1   4 1522.21 697.598   2
 -13  -1  -3 818.637 1191.95   3
  13   1  -3 1799.12 575.934   5
  13   1  -3 1930.77 577.103   1
  13  -1   3 2010.71 613.505   7
 -13   1   3 1494.11 649.825   7
  13   1  -3 1795.56 959.027   7
 -13   1   3 1862.96 553.005   4
 -13  -1  -3 1838.90 575.989   6
  13  -1   3 2054.85 943.246   4
 -13   1   3 2042.39 831.975   2
  13  -1   3 1931.42 668.244   2
 -13  -1  -2 36274.2 2663.86   4
  13  -1   2 35831.4 2619.55   4
 -13   1   2 34743.7 2152.92   4
 -13  -1  -2 31561.3 1761.14   2
  13   1  -2 31335.3 2470.83   4
 -13   1   2 32060.3 2511.44   2
  13   1  -2 32504.1 2292.90   7
  13  -1   2 31063.2 2084.39   2
 -13  -1  -2 31612.1 2214.23   6
 -13   1   1 10503.3 1272.30   4
  13  -1   1 11515.8 1380.83   4
  13   1  -1 8495.21 1237.73   4
 -13   1   1 9830.99 1393.47   2
 -13  -1  -1 9581.38 1152.98   2
  13   1  -1 8307.05 1229.46   7
  13  -1   1 10351.6 1287.23   2
 -13  -1  -1 9189.46 1359.88   4
  13   1  -1 10710.4 1473.30   2
 -13  -1   0 3312.60 840.478   2
  13  -1   0 3214.29 737.815   2
  13   1   0 2231.02 847.527   2
 -13   1   0 3609.86 831.225   4
 -13  -1   0 2596.81 791.307   4
  13  -1   0 2321.25 771.725   4
 -13   1   0 2302.47 729.805   2
 -13   1   0 2213.95 880.346   6
  13  -1  -1 8881.78 1332.77   2
 -13   1  -1 9656.82 1295.67   4
 -13  -1   1 8676.82 1180.48   4
  13  -1  -1 7998.89 1124.32   4
  13  -1  -1 8769.94 981.692   7
 -13  -1   1 10687.7 1425.69   2
  13   1   1 9738.93 1214.59   2
 -13   1  -1 9357.77 1397.77   6
  13   1   1 8528.41 1088.56   5
 -13   1  -2 34813.5 3140.79   3
  13   1   2 30335.3 2403.70   4
 -13  -1   2 31797.0 2333.73   4
  13  -1  -2 35491.8 2175.42   4
  13  -1  -2 30563.5 2138.51   7
  13  -1  -2 33382.8 2152.15   1
 -13  -1   2 30814.7 2505.75   2
  13   1   2 30542.4 1897.88   2
 -13   1  -2 29120.4 2346.40   6
  13   1   2 31898.5 2318.55   5
 -13  -1   3 2528.88 1055.97   2
  13  -1  -3 1279.78 695.277   1
 -13   1  -3 1390.44 1121.84   3
  13  -1  -3 816.870 551.650   5
  13   1   3 2069.64 506.140   2
  13  -1  -3 2595.01 880.561   7
  13   1   3 3402.67 922.534   4
 -13   1  -3 1843.48 761.581   6
 -13  -1   3 2135.66 706.119   4
  13  -1  -3 2184.35 804.549   4
 -13  -1   4 1674.13 793.698   2
  13  -1  -4 1908.70 791.771   5
 -13   1  -4 486.934 1447.51   3
  13  -1  -4 2560.40 907.888   7
  13   1   4 1512.23 924.867   4
 -13   1  -4 1206.81 706.829   6
 -13  -1   5 2552.77 1031.09   2
  13  -1  -5 4677.79 1228.69   5
 -13   1  -5 3244.67 1576.53   3
  13  -1  -5 2584.16 1262.42   7
  13   1   5 3092.12 1139.20   4
 -13  -1   6 2228.42 1059.82   2
  13  -1  -6 1112.28 1008.85   5
  13  -1  -6 2669.51 1253.90   7
  13   1   6 1190.10 1076.12   4
  13   2  -6-11.7579 1156.50   7
  13  -2   6-266.773 1418.30   4
 -13   2   6 1854.49 693.256   2
 -13   2   6 452.330 570.367   6
  13   2  -5 3178.64 767.380   5
 -13  -2  -5 1556.52 1710.41   3
  13   2  -5 3808.13 1326.83   7
  13  -2   5 3654.93 1597.44   4
 -13   2   5 3907.46 1147.39   2
  13   2  -4 10034.5 1035.18   1
 -13  -2  -4 12029.0 2524.79   3
 -13   2   4 8627.89 1035.89   4
  13  -2   4 11265.8 1386.58   2
  13  -2   4 10080.4 1430.53   7
  13   2  -4 9532.07 1864.20   7
  13  -2   4 11380.7 1900.24   4
 -13  -2  -4 11132.2 1005.01   6
 -13   2   4 11011.7 1753.52   2
  13  -2   4 8544.18 1581.31   6
  13   2  -4 11612.9 1103.78   5
 -13  -2  -3 16347.1 2500.13   3
  13  -2   3 13226.6 1889.34   4
 -13   2   3 13369.8 1281.66   4
  13  -2   3 16283.3 1502.11   7
 -13   2   3 15115.8 1865.69   2
  13  -2   3 13603.9 1503.79   2
  13   2  -3 13507.3 1883.11   7
 -13   2   3 16556.5 1640.16   7
  13   2  -3 14069.4 1215.60   1
 -13  -2  -3 17146.3 1511.79   6
 -13   2   3 14881.7 2006.15   6
  13   2  -3 14938.9 1053.81   5
  13  -2   2 6342.06 808.658   7
 -13  -2  -2 6685.15 871.152   2
 -13   2   2 5752.39 878.237   4
  13   2  -2 5618.26 1046.67   7
  13  -2   2 5258.02 1095.54   4
 -13   2   2 4433.25 1043.50   2
  13  -2   2 6121.20 1024.95   2
 -13   2   2 5722.62 1248.27   6
  13   2  -2 5772.86 566.241   5
  13   2  -2 7204.01 1410.98   4
 -13   2   1 13836.5 1424.45   4
  13  -2   1 13418.4 1597.03   4
 -13  -2  -1 14516.0 1713.53   4
 -13   2   1 14262.5 1581.72   2
  13   2  -1 14493.5 1769.72   4
  13  -2   1 14357.4 1587.28   2
 -13  -2  -1 12980.7 1362.37   2
  13   2  -1 17000.5 1875.72   2
 -13   2   1 13002.1 1734.68   6
 -13   2   0 26165.6 2087.12   4
  13  -2   0 28225.1 2000.77   4
 -13  -2   0 30724.3 2323.98   4
  13  -2   0 32515.6 1393.81   7
  13  -2   0 28050.4 2223.61   2
 -13  -2   0 25813.6 2057.31   2
  13   2   0 27031.0 2182.28   2
 -13   2   0 25790.0 2301.92   6
  13   2   0 29645.3 1684.03   5
 -13   2  -1 13882.0 1665.62   4
  13  -2  -1 13025.5 1344.96   4
 -13  -2   1 12660.1 1559.46   4
  13  -2  -1 12616.7 1136.11   7
  13  -2  -1 13930.7 1692.17   2
 -13  -2   1 12175.1 1579.88   2
 -13   2  -1 11351.1 1571.98   6
  13   2   1 13977.4 1475.95   2
  13   2   1 13045.3 1614.97   4
  13   2   1 12863.6 1374.70   5
  13   2   2 4326.03 993.169   5
 -13   2  -2 5175.22 1374.16   3
 -13  -2   2 6590.14 1300.66   2
  13  -2  -2 6551.73 965.621   4
  13  -2  -2 6158.58 1009.47   7
  13   2   2 7555.97 984.375   2
  13   2   2 6348.56 1266.74   4
 -13   2  -2 5958.33 1217.40   6
 -13   2  -3 13847.3 2316.60   3
  13   2   3 13914.3 1801.66   4
  13  -2  -3 13491.5 1718.11   7
  13  -2  -3 13792.4 1474.79   4
 -13  -2   3 15102.2 2112.13   2
 -13   2  -3 15016.1 1784.40   6
  13  -2  -3 15421.9 1734.58   5
  13  -2  -4 10328.8 1625.02   5
 -13  -2   4 8881.31 1721.42   2
 -13   2  -4 11862.8 2361.83   3
  13   2   4 13088.2 1867.30   4
  13  -2  -4 10996.6 1804.33   7
 -13   2  -4 8620.23 1562.45   6
  13  -2  -5 2281.58 1133.72   5
 -13  -2   5 3343.81 1408.43   2
 -13   2  -5 1055.70 1574.56   3
  13  -2  -5 6770.95 1464.61   7
  13   2   5 3055.48 1217.25   4
  13  -2  -6 826.240 986.659   5
 -13  -2   6-2310.93 1419.67   2
  13  -2  -6-1040.10 1058.24   7
  13   2   6 365.250 1062.43   4
  13   3  -6 5411.67 1577.33   7
  13  -3   6 2896.11 1436.80   4
 -13  -3  -5-441.889 1519.99   3
  13   3  -5 408.981 855.579   7
  13  -3   5 635.259 1189.70   4
 -13   3   5 1618.76 699.257   6
 -13  -3  -4 4749.35 1849.56   3
  13  -3   4 5459.47 1045.88   7
  13  -3   4 3575.65 1248.77   4
  13   3  -4 5952.24 1482.05   7
 -13  -3  -4 5503.18 627.791   6
 -13   3   4 5021.81 1297.39   6
 -13  -3  -3 5217.69 1679.09   3
  13  -3   3 4455.86 766.780   7
 -13   3   3 4159.73 672.960   4
  13  -3   3 4745.06 1272.36   4
  13   3  -3 5008.58 1192.57   7
 -13   3   3 4270.77 881.173   7
 -13  -3  -3 4398.79 565.695   2
 -13   3   3 5089.53 1237.20   6
 -13  -3  -2 2082.14 587.297   2
 -13   3   2 1897.79 565.434   4
  13  -3   2 2536.39 456.790   7
  13  -3   2 2742.93 922.540   4
  13   3  -2 1953.04 879.408   7
 -13   3   2 1840.13 568.788   7
  13  -3   2 2613.44 744.080   2
 -13   3   2 1689.96 975.562   6
 -13   3   1 37765.5 2360.19   4
  13  -3   1 36901.7 2612.35   4
  13   3  -1 43172.1 3194.78   4
 -13   3   1 38297.5 3032.23   6
  13   3  -1 40061.8 1268.78   5
 -13  -3  -1 39016.4 2421.65   2
 -13   3   0 24087.0 2109.29   4
  13  -3   0 26308.2 1988.88   4
  13  -3   0 25812.0 867.978   7
  13   3   0 25147.4 2416.19   4
 -13  -3   0 27321.8 2236.45   2
 -13   3   0 25990.4 2518.79   6
  13   3   0 26932.2 1577.28   5
 -13   3  -1 40200.6 2917.92   4
  13  -3  -1 40532.5 2228.15   4
  13   3   1 40109.4 2834.95   4
  13  -3  -1 38454.1 1717.76   7
 -13  -3   1 35932.2 2828.95   2
 -13   3  -1 39948.6 3060.22   6
  13   3   1 42210.6 2442.56   5
  13   3   2 2652.28 755.884   5
 -13   3  -2 2755.45 1127.09   3
 -13  -3   2 1451.02 914.102   2
  13  -3  -2 2034.16 616.774   7
 -13   3  -2 2361.65 853.791   6
  13   3   2 2709.21 955.339   4
  13  -3  -2 1742.34 564.404   4
  13  -3  -3 4838.45 1128.31   5
 -13   3  -3 3819.29 1565.58   3
 -13  -3   3 5053.65 1345.26   2
  13  -3  -3 6383.63 916.811   4
  13  -3  -3 5248.58 1125.54   7
 -13   3  -3 3764.26 1083.49   6
  13   3   3 4966.07 1202.83   4
  13  -3  -4 3523.66 1124.28   5
 -13  -3   4 4745.87 1418.55   2
 -13   3  -4 4478.77 1766.70   3
  13  -3  -4 4080.19 1247.58   7
 -13   3  -4 3465.41 1143.86   6
  13   3   4 4088.17 1347.99   4
  13  -3  -5 673.661 857.639   5
 -13  -3   5 964.653 557.976   2
 -13   3  -5 2370.95 1250.42   3
  13  -3  -5 1423.89 642.167   7
  13   3   5 93.3610 653.962   4
  13  -3  -6 1737.07 1105.33   5
 -13  -3   6 4614.93 1269.61   2
  13  -3  -6 2040.64 867.304   7
  13   3   6 1542.76 1215.31   4
 -13  -4  -5 3916.26 1784.13   3
  13   4  -5 4024.74 1418.53   7
  13  -4   5 3231.74 1405.80   4
 -13   4   5 3517.00 975.998   6
 -13  -4  -4 5089.64 1811.56   3
  13  -4   4 7005.65 1742.35   4
  13   4  -4 5995.06 1544.75   7
 -13   4   4 7822.36 1548.04   6
 -13  -4  -4 5665.94 1421.94   5
 -13  -4  -3-129.309 1035.00   3
  13  -4   3-912.205 923.100   4
  13  -4   3 287.439 306.388   7
  13   4  -3-454.405 1124.19   7
 -13   4   3 583.462 470.179   7
 -13   4   3-3.91294 654.060   6
 -13  -4  -3 349.578 313.723   2
  13  -4   2 11178.4 1669.31   4
 -13   4   2 10270.3 1038.06   7
 -13  -4  -2 9298.09 1170.89   2
  13   4  -2 11463.7 1764.34   7
 -13   4   2 10694.1 1746.59   6
  13  -4   1 10919.2 1549.77   4
 -13  -4  -1 9470.29 1439.30   2
 -13   4   1 8774.57 1689.14   6
  13   4  -1 10045.6 1797.26   4
  13   4   0 1760.62 449.091   5
 -13  -4   0 2018.39 852.615   2
  13  -4   0 2905.99 824.206   4
 -13   4   0 2353.10 1144.79   6
  13   4   0 1605.94 1033.59   4
 -13   4  -1 9264.48 1637.36   3
  13  -4  -1 10089.5 1177.16   4
 -13  -4   1 8701.72 1608.59   2
  13   4   1 10618.9 1641.14   4
 -13   4  -1 9979.61 1772.29   6
  13   4   1 10890.0 1269.99   5
  13   4   2 10103.3 1457.83   5
 -13   4  -2 10658.6 1936.53   3
  13  -4  -2 9676.19 1056.53   4
 -13  -4   2 10271.7 1909.68   2
 -13   4  -2 9681.74 1689.55   6
  13   4   2 10325.1 1657.10   4
  13  -4  -3-241.604 821.435   5
 -13   4  -3-359.979 728.218   3
 -13  -4   3-803.188 962.835   2
 -13   4  -3 833.567 576.024   6
  13   4   3-370.381 907.472   4
  13  -4  -4 3147.99 974.783   5
 -13   4  -4 6346.64 1881.20   3
 -13  -4   4 4380.36 1388.38   2
 -13   4  -4 5146.88 1454.59   6
  13   4   4 3632.44 1250.13   4
  13  -4  -5 4182.62 1461.68   5
 -13  -4   5 4966.73 1618.41   2
  13   4   5 4278.72 1373.59   4
  13  -5   5 723.010 1230.96   4
  13   5  -5 1178.07 1258.21   7
 -13   5   5 2934.48 1040.52   6
 -13  -5  -5 4275.55 1336.94   5
 -13  -5  -4 475.410 1243.29   3
  13  -5   4 293.787 1109.37   4
  13   5  -4-382.332 1081.45   7
 -13   5   4-443.022 810.965   6
 -13  -5  -4-684.752 894.024   5
 -13  -5  -3 1998.64 620.970   2
 -13  -5  -3 3530.08 1312.88   3
  13  -5   3 1951.64 1005.59   4
  13   5  -3 810.274 885.315   7
 -13   5   3 2348.53 1189.15   6
 -13  -5  -3 1597.95 829.058   5
 -13  -5  -2-192.512 587.805   2
  13  -5   2 1185.56 837.591   4
 -13   5   2-851.449 400.976   7
  13   5  -2 102.772 752.148   7
 -13   5   2-1457.57 896.929   6
 -13  -5  -2 892.815 568.392   5
 -13  -5  -1 1663.75 816.214   2
  13  -5   1 1630.93 830.273   4
 -13   5   1 1736.82 1191.64   6
 -13   5   0 3168.94 1046.51   3
  13   5   0 4315.68 582.059   5
 -13  -5   0 2921.41 1115.74   2
  13  -5   0 4510.51 998.632   4
 -13   5   0 1331.40 769.698   6
  13   5   0 2996.70 1330.85   4
 -13   5  -1 1549.89 899.951   3
  13   5   1 2172.16 674.523   5
 -13  -5   1 3940.49 1290.50   2
  13  -5  -1 2731.61 617.331   4
 -13   5  -1 2727.24 1148.29   6
  13   5   1 1082.18 814.237   4
  13   5   2-433.763 656.092   5
 -13   5  -2 121.396 966.566   3
 -13  -5   2-233.180 1157.76   2
 -13   5  -2-1507.26 1165.77   6
  13  -5  -2 300.210 284.835   4
  13   5   2 594.925 832.962   4
  13  -5  -3 1295.43 795.994   5
 -13   5  -3 2416.13 998.366   3
 -13  -5   3 77.0698 794.939   2
 -13   5  -3 1832.60 1080.24   6
  13   5   3 1780.16 1018.98   4
  13  -5  -4-834.613 934.197   5
 -13   5  -4 2102.81 1256.77   3
 -13  -5   4 203.056 901.095   2
  13   5   4-203.925 789.056   4
  13  -5  -5 176.538 748.086   5
 -13  -5   5 3384.96 1344.57   2
  13   5   5 2057.08 1172.89   4
 -13  -6  -4 1490.28 1421.19   3
  13  -6   4-83.5886 986.183   4
  13   6  -4 1832.01 1228.64   7
 -13   6   4 1927.53 1002.98   6
 -13  -6  -4 2151.00 955.568   5
 -13  -6  -3 4738.72 1476.82   3
  13  -6   3 4563.25 1414.57   4
  13   6  -3 2463.99 1510.86   7
 -13   6   3 2996.93 1302.58   6
 -13  -6  -3 2290.49 1088.69   5
 -13  -6  -2 545.136 811.759   3
 -13  -6  -2 1150.80 767.805   2
  13  -6   2 626.729 1021.08   4
  13   6  -2 833.405 993.264   7
 -13   6   2 859.559 957.434   6
 -13  -6  -2 1183.45 627.177   5
 -13  -6  -1 1072.56 816.610   2
  13  -6   1-226.436 824.883   4
 -13   6   1 1288.87 895.951   6
 -13   6   1 709.268 578.531   3
 -13   6   0 303.426 750.936   3
 -13  -6   0 2802.55 904.913   2
  13  -6   0 495.293 632.203   4
 -13   6   0 2169.92 885.722   6
 -13   6  -1 2263.10 1051.79   3
 -13  -6   1 1099.38 697.132   2
  13  -6  -1 239.691 402.371   4
 -13   6  -1 523.136 740.254   6
  13   6   1 1119.79 1182.36   4
 -13  -6   2 2094.19 1000.29   2
  13  -6  -2 859.747 721.065   5
 -13   6  -2 1575.55 757.412   3
 -13   6  -2 393.631 1128.64   6
  13   6   2 282.475 934.954   4
  13  -6  -3 2279.33 1380.99   5
 -13   6  -3 468.417 1262.25   3
 -13  -6   3 3088.52 1476.44   2
 -13   6  -3 2678.35 1161.60   6
  13   6   3 2538.27 1280.95   4
  13  -6  -4 2195.08 823.674   5
 -13  -6   4 3297.81 1646.03   2
  13   6   4 2314.12 1186.92   4
  13  -7   3 844.376 784.365   4
  13   7  -3-164.331 802.673   7
 -13   7   3 96.0119 698.522   6
 -13  -7  -3-416.615 514.624   5
 -13  -7  -2 2730.55 749.317   2
  13  -7   2 2998.53 1060.16   4
  13   7  -2 1064.40 962.226   7
 -13   7   2 717.766 1185.31   6
 -13  -7  -2 1033.52 567.041   5
 -13  -7  -1 1903.70 852.092   2
  13  -7   1 2270.70 1008.93   4
 -13   7   1 2572.02 1258.58   6
  13   7  -1 1410.54 605.972   1
 -13  -7  -1 1373.62 686.974   5
 -13  -7   0 689.133 1003.94   2
  13  -7   0 1085.72 719.703   4
 -13   7   0 2494.58 1120.76   6
 -13   7  -1 2909.03 1127.42   3
 -13  -7   1 2637.72 946.466   2
 -13   7  -1 2878.63 1052.00   6
  13  -7  -2 899.353 904.553   5
 -13  -7   2 246.353 1083.12   2
 -13   7  -2 733.983 1039.75   3
 -13   7  -2 2432.81 1249.36   6
  13   7   2 1420.93 1138.53   4
  13  -7  -3 907.479 608.859   5
  13   7   3-118.804 1267.03   4
  13  -8   2-750.994 1060.39   4
  13   8  -2-142.832 654.582   7
  13  -8   1 1069.59 977.568   4
 -13  -8  -1-683.379 616.231   2
 -13   8   1 85.6373 922.895   6
 -13  -8   0 1045.29 879.711   2
  13   8   0-668.747 985.508   1
 -13   8   0 1617.12 910.313   6
  13   8   1 892.504 782.371   1
 -13   8  -1-943.132 930.511   6
 -13  -8   1 40.6170 1310.45   2
  13  -8  -2 247.290 795.962   5
  13   8   2 346.006 785.983   1
 -13  -8   2-367.986 1042.63   2
 -14   0   0 11974.8 1449.31   4
  14   0   0 10631.4 1428.31   4
 -14   0   0 11393.2 1370.66   2
  14   0   0 9871.22 1364.87   2
  14   0   1 1190.15 623.339   2
  14   0  -1 1247.25 712.616   2
 -14   0  -1 58.0128 453.123   4
  14   0  -1 685.734 526.562   7
 -14   0   1 1014.06 551.400   4
  14   0   1 1807.87 857.556   4
 -14   0  -1 402.436 505.458   2
  14   0  -1 966.395 603.619   4
 -14   0  -1 1200.12 638.593   6
 -14   0   1 716.606 579.620   2
  14   0   2 6525.73 992.948   2
  14   0  -2 6436.17 1088.42   7
  14   0   2 7346.86 1356.35   4
 -14   0   2 6477.27 1094.17   4
 -14   0  -2 6576.24 1219.57   6
  14   0  -2 7381.86 1224.17   4
 -14   0   2 8240.65 1408.13   2
  14   0   2 5335.50 1060.70   5
  14   0   3 592.442 540.309   2
 -14   0  -3 1592.03 1233.43   3
  14   0  -3 1085.80 572.686   5
  14   0  -3 1026.39 786.866   7
  14   0   3 911.716 927.143   4
 -14   0   3 1439.62 621.226   4
 -14   0  -3 1178.05 695.523   6
  14   0  -3 809.978 565.097   1
 -14   0   3 771.359 655.689   2
  14   0  -4 287.160 500.946   5
  14   0   4-278.500 331.671   2
 -14   0  -4 811.595 1398.66   3
  14   0  -4-1026.21 479.858   1
  14   0  -4 61.4412 746.433   7
  14   0   4-418.190 963.997   4
 -14   0  -4-450.903 515.511   6
 -14   0   4 1041.05 579.584   4
 -14   0   4 322.300 661.032   2
  14   0  -5 194.459 597.401   5
  14   0  -5 1797.58 1044.80   7
  14   0   5 2253.39 994.660   4
 -14   0   5 968.086 613.580   2
  14   0  -6 532.033 633.610   5
 -14   0  -6-731.750 2006.82   3
  14   0  -6 868.430 973.001   7
  14   0   6-381.135 1185.31   4
 -14   0   6 1176.01 693.040   2
  14   1  -6 2963.81 1236.02   7
  14  -1   6 3191.32 1040.87   4
 -14   1   6 862.925 791.792   2
  14   1  -5 2009.61 567.307   5
 -14  -1  -5 1607.18 1761.43   3
  14   1  -5 1768.96 1030.44   7
  14  -1   5 652.052 1154.77   4
 -14   1   5 1188.22 882.402   2
  14   1  -4 2489.10 713.667   5
 -14  -1  -4 2144.48 1304.39   3
  14   1  -4 3462.26 684.140   1
  14  -1   4 1292.26 1086.66   4
 -14   1   4 1748.43 693.660   4
 -14  -1  -4 1766.30 623.322   6
  14   1  -4 3359.96 1319.78   7
 -14   1   4 1364.80 770.896   2
  14  -1   4 3003.87 773.941   2
 -14  -1  -3 11012.8 2293.87   3
  14  -1   3 15329.8 1934.51   4
 -14   1   3 13253.6 1464.55   4
  14  -1   3 12737.8 1412.60   7
  14   1  -3 14329.3 1886.52   7
 -14   1   3 12612.4 1821.12   2
  14   1  -3 14609.9 1405.31   1
  14  -1   3 13095.4 1418.43   2
 -14  -1  -3 13642.3 1483.41   6
  14   1  -3 13765.3 1280.96   5
  14   1  -2 5711.30 1126.51   7
  14  -1   2 5090.04 1174.43   4
 -14   1   2 4974.01 955.065   4
 -14  -1  -2 3789.62 736.436   2
 -14   1   2 3095.16 1052.37   2
 -14  -1  -2 3859.16 928.155   6
  14   1  -2 3685.48 1126.04   4
  14  -1   2 4638.55 916.381   2
  14  -1   1 261.301 657.508   2
  14   1  -1-350.183 620.944   2
 -14  -1  -1 608.397 559.210   4
  14   1  -1 1008.43 647.778   7
 -14   1   1 311.074 512.199   4
  14  -1   1 560.064 510.616   4
 -14   1   1 588.509 763.102   2
  14   1  -1 1539.83 728.266   4
 -14  -1  -1 830.370 525.810   2
 -14   1   0 8607.24 1224.28   4
 -14  -1   0 10238.5 1404.46   4
  14  -1   0 8770.18 1234.18   4
 -14   1   0 8582.72 1256.89   2
  14   1   0 9458.72 1394.85   2
  14  -1   0 7387.30 893.523   7
 -14  -1   0 11001.2 1378.51   2
  14  -1   0 9424.06 1376.43   2
  14   1   0 8747.11 1343.49   4
 -14   1   0 9692.92 1483.92   6
 -14  -1   1 190.159 578.756   2
  14  -1  -1 1240.91 738.881   2
  14   1   1 758.578 480.169   2
 -14   1  -1 39.0641 329.124   4
  14  -1  -1 420.786 440.612   7
 -14  -1   1 1174.73 546.050   4
  14   1   1 776.743 725.256   4
  14  -1  -1 1137.59 709.196   4
 -14   1  -1 53.8308 625.379   6
  14   1   1 716.291 570.945   5
  14   1   2 3787.00 928.429   5
 -14  -1   2 4793.63 1152.79   2
 -14   1  -2 5083.63 1403.75   3
  14  -1  -2 4236.54 917.450   1
  14   1   2 5795.79 900.910   2
  14  -1  -2 4048.17 963.840   7
  14   1   2 5040.51 1134.73   4
 -14  -1   2 4821.73 1034.79   4
 -14   1  -2 5026.43 1212.56   6
  14  -1  -2 5529.91 986.091   4
 -14   1  -3 12161.7 2221.99   3
  14   1   3 12746.8 1759.43   4
  14  -1  -3 12547.5 1705.81   7
  14  -1  -3 11991.0 1578.72   4
 -14  -1   3 11606.2 1774.88   2
  14   1   3 14519.0 1273.97   2
 -14   1  -3 12368.4 1642.24   6
  14  -1  -3 13567.6 1538.71   5
 -14  -1   4 2152.71 1111.33   2
  14  -1  -4 2120.75 918.358   5
 -14   1  -4 3278.25 1546.42   3
  14  -1  -4 2911.65 1111.97   7
  14   1   4 2018.47 1045.96   4
  14   1   4 2973.48 405.158   2
 -14   1  -4 1827.70 766.512   6
 -14  -1   5 529.287 759.255   2
  14  -1  -5 1401.15 836.034   5
 -14   1  -5 449.573 1859.84   3
  14  -1  -5 1149.26 830.448   7
  14   1   5 292.033 1006.51   4
 -14  -1   6-214.726 857.536   2
  14  -1  -6 724.914 940.535   5
  14  -1  -6 423.018 1311.74   7
  14   1   6 1781.57 1039.14   4
 -14  -2  -6 8.68645 2054.13   3
  14   2  -6 950.636 1034.04   7
 -14   2   6 2483.49 905.769   2
 -14   2   6 1856.53 1100.36   6
 -14  -2  -5 5447.82 1906.49   3
  14   2  -5 5426.91 1701.87   7
  14  -2   5 3357.54 1248.04   4
 -14   2   5 3145.84 1058.19   2
 -14   2   5 2887.91 1026.16   6
  14   2  -4 1062.48 479.753   5
 -14  -2  -4 2961.39 1519.20   3
  14  -2   4-273.201 683.608   7
  14   2  -4 1234.16 947.012   7
  14  -2   4 1416.94 1167.07   4
  14   2  -4 2182.82 468.906   1
 -14   2   4 1880.87 457.028   4
 -14  -2  -4 594.743 408.754   6
 -14   2   4 604.110 796.096   2
  14  -2   4 502.533 554.267   2
  14   2  -3 815.241 320.664   5
 -14  -2  -3 1042.13 1308.01   3
  14  -2   3 1273.45 679.227   7
  14   2  -3 1292.08 916.879   7
  14  -2   3 1343.25 908.221   4
 -14   2   3 1370.20 656.151   7
 -14   2   3 1767.89 597.614   4
 -14   2   3 1055.47 823.312   2
  14  -2   3 1043.51 646.636   2
 -14  -2  -3 1482.58 617.301   6
 -14   2   3 233.224 875.158   6
 -14   2   2 7519.63 1079.30   4
  14  -2   2 7740.27 908.687   7
 -14  -2  -2 8430.63 1052.20   2
  14   2  -2 9874.48 1442.16   7
  14  -2   2 8815.76 1504.09   4
 -14   2   2 7713.39 1402.32   2
  14  -2   2 7612.37 1202.35   2
 -14   2   2 8802.00 1563.25   6
  14   2  -2 8944.10 1580.02   4
  14   2  -2 7861.10 708.669   5
 -14  -2  -1 2374.39 725.288   2
 -14   2   1 1040.44 678.225   2
 -14   2   1 1353.57 614.050   4
  14  -2   1 3215.17 917.346   4
 -14   2   1 1431.90 750.445   6
  14   2  -1 1519.34 777.837   4
  14  -2   1 2270.40 709.525   2
  14   2   0-325.591 301.948   5
 -14  -2   0-882.953 560.248   2
 -14   2   0 112.402 494.502   4
  14  -2   0-589.612 387.657   7
  14   2   0-602.673 644.997   2
  14  -2   0-128.230 492.909   4
 -14   2   0 15.7672 567.078   6
  14   2   0-243.907 885.554   4
  14  -2   0-1276.41 599.505   2
  14   2   1 1237.36 536.268   5
 -14  -2   1 1780.60 804.883   2
 -14   2  -1 1656.03 650.082   4
  14  -2  -1 1788.93 548.785   7
  14   2   1 2076.90 739.616   2
  14  -2  -1 1562.88 651.749   4
  14   2   1 1733.90 913.429   4
 -14   2  -1 684.071 600.193   6
  14   2   2 8021.63 1347.14   5
 -14   2  -2 11121.0 2037.80   3
 -14  -2   2 8751.25 1574.05   2
  14  -2  -2 7875.59 1132.88   4
  14  -2  -2 8207.46 1207.78   7
  14   2   2 9220.30 1155.71   2
  14   2   2 8977.20 1483.11   4
 -14   2  -2 5915.88 1311.13   6
 -14  -2   3 1979.99 1152.55   2
 -14   2  -3 1088.15 1023.52   3
  14  -2  -3 1549.19 802.309   5
  14  -2  -3 1838.00 836.873   7
  14   2   3 1771.33 957.514   4
 -14   2  -3 122.758 491.204   6
  14  -2  -3 1139.75 608.074   4
 -14  -2   4 772.822 810.683   2
  14  -2  -4 924.293 856.828   5
 -14   2  -4 929.289 1193.45   3
  14  -2  -4 1094.30 818.976   7
  14   2   4 150.709 957.007   4
 -14   2  -4 759.817 719.935   6
 -14  -2   5 5337.23 1255.50   2
  14  -2  -5 2518.59 1033.58   5
 -14   2  -5 1978.85 1791.53   3
  14  -2  -5 3972.99 1413.13   7
  14   2   5 3903.94 1274.13   4
 -14  -2   6 4172.70 1523.65   2
  14  -2  -6 5564.12 1299.19   5
  14  -2  -6 2694.14 1076.25   7
  14   2   6 3745.48 1227.13   4
  14   3  -6-313.477 785.651   7
  14  -3   6 341.354 1211.58   4
 -14   3   6-863.131 913.297   6
 -14  -3  -5 3093.99 1734.30   3
  14   3  -5 2632.03 1170.15   7
  14  -3   5 1422.94 1289.83   4
 -14   3   5 3496.52 1054.69   6
 -14  -3  -4 975.346 1310.85   3
  14   3  -4 3083.36 1296.03   7
  14  -3   4 3303.38 1332.18   4
 -14   3   4 2784.07 1189.36   6
 -14  -3  -3 1044.67 1143.67   3
  14  -3   3 224.287 393.434   7
 -14   3   3 1179.24 500.091   4
  14  -3   3 2271.87 899.583   4
  14   3  -3 897.118 839.706   7
 -14   3   3 1216.25 633.293   7
 -14  -3  -3 1172.51 353.027   2
 -14   3   3 1535.82 792.850   6
 -14  -3  -2 6809.67 1001.40   2
  14  -3   2 5986.21 637.049   7
 -14   3   2 5820.22 983.799   4
  14  -3   2 7142.04 1385.53   4
  14   3  -2 6345.72 1272.90   7
 -14   3   2 5290.88 1342.75   6
  14   3  -2 6651.70 1632.85   4
 -14   3   1 21615.0 1888.71   4
  14  -3   1 20497.7 2080.11   4
  14  -3   1 23096.5 755.912   7
  14  -3   1 22010.4 684.987   7
  14   3  -1 25213.5 2676.50   4
 -14  -3  -1 27737.2 2128.42   2
 -14   3   1 21631.2 2398.90   6
  14   3  -1 25022.3 1131.87   5
  14   3   0 97.5800 323.911   5
 -14  -3   0 297.796 657.836   2
 -14   3   0 960.913 642.088   4
  14  -3   0 243.705 181.383   7
  14  -3   0 391.438 489.205   4
  14   3   0-70.0858 644.242   4
  14  -3  -1 23752.4 1824.84   4
  14   3   1 22340.0 2271.18   4
  14  -3  -1 25406.8 1475.47   7
 -14  -3   1 22624.3 2319.01   2
 -14   3  -1 26585.6 2600.02   6
  14   3   1 22346.3 1870.53   5
  14   3   2 7356.07 1283.83   5
 -14   3  -2 8180.14 1811.03   3
 -14  -3   2 6656.12 1508.74   2
  14  -3  -2 6388.42 1052.17   7
 -14   3  -2 7341.42 1529.21   6
  14   3   2 6577.44 1361.00   4
  14  -3  -2 6942.32 1017.54   4
  14  -3  -3 1196.73 721.738   5
 -14   3  -3 730.596 1029.76   3
 -14  -3   3-514.339 935.057   2
  14  -3  -3 334.850 699.329   7
 -14   3  -3-145.154 837.545   6
  14   3   3 1081.97 726.290   4
  14  -3  -3 699.235 475.886   4
  14  -3  -4 4038.07 1136.00   5
 -14  -3   4 5716.14 1320.69   2
 -14   3  -4 4203.59 1668.08   3
  14  -3  -4 2687.65 1077.53   7
 -14   3  -4 2668.87 1103.50   6
  14   3   4 3705.14 1278.71   4
  14  -3  -5 3446.81 1321.59   5
 -14  -3   5 2773.26 1541.47   2
 -14   3  -5 1384.32 1722.87   3
  14  -3  -5 5822.97 1277.95   7
  14   3   5 2022.05 1137.40   4
  14  -3  -6 669.265 573.317   5
  14  -3  -6-1814.30 1273.00   7
  14   3   6 154.833 1051.91   4
 -14  -4  -5 532.921 1590.90   3
  14   4  -5 116.859 1129.69   7
  14  -4   5 1862.31 1344.06   4
 -14   4   5 345.133 927.729   6
 -14  -4  -4 119.279 1362.92   3
  14  -4   4-2280.65 1401.55   4
  14   4  -4 706.892 827.929   7
 -14   4   4 1282.42 831.035   6
 -14  -4  -3-177.614 1271.90   3
  14  -4   3 636.073 821.218   4
  14   4  -3-522.169 1154.37   7
 -14   4   3-179.902 629.292   7
 -14   4   3-299.563 773.081   6
 -14  -4  -3-579.338 331.439   2
 -14  -4  -2 3394.90 816.976   2
  14  -4   2 3514.63 1156.01   4
  14   4  -2 3298.33 1172.38   7
 -14   4   2 3747.84 1122.05   6
 -14  -4  -1 6045.17 1196.20   2
  14  -4   1 7312.59 1373.91   4
 -14   4   1 7140.19 1569.99   6
  14   4  -1 8250.30 1701.95   4
  14  -4   0 11066.0 1477.02   4
 -14  -4   0 10595.8 1630.21   2
  14   4   0 14536.6 2076.61   4
 -14   4   0 10147.9 1853.85   6
  14   4   0 11377.4 1019.57   5
 -14   4  -1 6750.99 1562.26   3
  14   4   1 7789.82 1156.21   5
 -14  -4   1 7418.10 1515.82   2
  14  -4  -1 7627.28 1125.76   4
 -14   4  -1 7617.18 1679.20   6
  14   4   1 4425.55 1350.55   4
  14   4   2 3076.90 1032.10   5
 -14   4  -2 1156.56 1255.88   3
 -14  -4   2 3345.35 1336.00   2
 -14   4  -2 5749.16 1436.41   6
  14  -4  -2 3814.46 800.086   4
  14   4   2 3818.24 1119.76   4
  14  -4  -3 82.2724 736.834   5
 -14   4  -3 1199.64 1021.20   3
 -14  -4   3 825.741 1232.92   2
  14  -4  -3-17.5578 452.340   7
 -14   4  -3 306.113 631.573   6
  14   4   3-51.6448 896.663   4
  14  -4  -3 1.33275 355.461   4
  14  -4  -4-1982.65 1262.99   5
 -14   4  -4-2153.45 1891.98   3
 -14  -4   4-2372.96 1226.54   2
  14  -4  -4-2487.33 883.884   7
 -14   4  -4 13.3212 507.008   6
  14   4   4-533.009 847.978   4
  14  -4  -5 923.201 1031.59   5
 -14  -4   5-1168.46 878.523   2
  14   4   5-152.952 1283.54   4
 -14  -5  -5 2800.50 1720.24   3
  14  -5   5 35.6238 1144.20   4
  14   5  -5-164.749 985.226   7
 -14   5   5-1166.85 1102.79   6
 -14  -5  -4 2374.25 1224.82   3
  14  -5   4 2957.15 1338.97   4
  14   5  -4 4713.65 1511.45   7
 -14   5   4 4920.06 1494.77   6
 -14  -5  -4 3725.29 1359.87   5
 -14  -5  -3 4646.74 1749.06   3
  14  -5   3 6591.40 1617.11   4
  14   5  -3 7528.80 1656.87   7
 -14   5   3 6504.13 1577.35   6
 -14  -5  -2 1753.10 748.687   2
  14  -5   2 1707.35 1030.41   4
  14   5  -2 2443.98 1159.20   7
 -14   5   2 3378.31 1234.13   6
 -14  -5  -1 3286.13 955.045   2
  14  -5   1 2174.80 889.091   4
 -14   5   1 1836.27 973.428   6
  14   5   0 1147.04 387.383   5
 -14  -5   0 1505.88 872.272   2
  14  -5   0 1703.70 758.315   4
 -14   5   0 2524.29 1232.57   6
  14   5   0-488.146 1055.38   4
 -14   5   0 660.557 802.910   3
 -14   5  -1 2374.27 934.811   3
  14   5   1 2327.40 684.183   5
 -14  -5   1 1554.89 1022.72   2
  14  -5  -1 2177.10 709.185   4
 -14   5  -1 2572.64 1033.29   6
  14   5   1 2579.24 1186.76   4
 -14   5  -2 2402.07 1160.04   3
 -14  -5   2 215.978 1033.15   2
 -14   5  -2 1062.18 869.710   6
  14  -5  -2 1403.08 546.031   4
  14   5   2 1935.56 1025.38   4
  14  -5  -3 6474.59 1494.10   5
 -14   5  -3 5311.46 1751.70   3
 -14  -5   3 6119.86 1847.27   2
 -14   5  -3 4145.55 1458.17   6
  14   5   3 5318.46 1522.24   4
  14  -5  -4 4193.85 1179.95   5
 -14   5  -4 541.719 782.633   3
 -14  -5   4 4172.32 1345.53   2
  14   5   4 5534.67 1459.75   4
  14  -5  -5 433.779 804.872   5
 -14  -5   5 524.167 844.405   2
  14   5   5 1780.01 876.934   4
 -14  -6  -4 1137.30 1494.28   3
  14  -6   4 4142.24 1617.73   4
  14   6  -4 2522.60 1309.52   7
 -14   6   4 1070.84 1010.27   6
 -14  -6  -4 3762.18 1070.52   5
 -14  -6  -3 1121.44 1225.63   3
  14  -6   3-2212.97 1335.21   4
  14   6  -3-169.775 939.498   7
 -14   6   3-1990.82 1076.40   6
 -14  -6  -3-572.041 706.231   5
 -14  -6  -2 4111.63 1429.48   3
 -14  -6  -2 3722.44 1064.08   2
  14  -6   2 4426.74 1236.18   4
  14   6  -2 3518.29 1382.46   7
 -14   6   2 4476.23 1362.32   6
 -14  -6  -1 2398.67 952.419   2
  14  -6   1 1624.64 929.551   4
 -14   6   1 2401.79 1134.46   6
 -14   6   0 3393.26 1022.77   3
 -14  -6   0 1440.34 1011.85   2
  14  -6   0 1809.86 729.433   4
 -14   6   0 1514.40 1241.04   6
 -14   6  -1 1278.14 904.792   3
 -14  -6   1 1210.39 1072.50   2
  14  -6  -1 1847.73 557.696   4
 -14   6  -1 2113.13 989.419   6
  14   6   1 2195.36 1331.07   4
 -14   6  -2 6161.16 1659.90   3
 -14  -6   2 3656.16 1378.34   2
 -14   6  -2 3724.55 1465.08   6
  14   6   2 3875.58 1479.48   4
  14  -6  -3 130.883 1034.61   5
 -14   6  -3-1598.11 1272.19   3
 -14  -6   3-587.284 1388.23   2
 -14   6  -3-1489.93 941.697   6
  14   6   3-145.092 894.453   4
  14  -6  -4 6288.93 1471.25   5
 -14  -6   4 4215.94 1739.08   2
  14   6   4 4648.52 1391.28   4
  14  -7   3 4670.86 1720.96   4
  14   7  -3 3175.50 1392.91   7
 -14   7   3 2731.29 1097.59   6
 -14  -7  -3 2288.02 1054.21   5
 -14  -7  -2 1646.92 995.759   2
  14  -7   2 2554.58 1216.36   4
  14   7  -2 2618.74 1222.64   7
 -14   7   2 4655.64 1387.74   6
 -14  -7  -2 29.7831 653.233   5
 -14  -7  -1 1026.06 1061.84   2
  14  -7   1 2002.17 903.921   4
 -14   7   1-598.746 1390.07   6
 -14  -7   0-1358.87 1020.62   2
  14  -7   0-140.704 733.669   4
 -14   7   0 33.8520 306.480   6
 -14   7  -1 1117.60 1241.59   3
 -14  -7   1 2137.63 883.235   2
  14  -7  -2 1182.43 1129.13   5
 -14   7  -2 117.345 600.582   3
 -14  -7   2 3301.03 1129.62   2
 -14   7  -2-1542.02 1209.96   6
  14   7   2 150.830 1439.89   4
  14  -7  -3 3381.64 1651.14   5
 -14  -7   3 3494.82 1826.15   2
  14   7   3 1569.28 1575.16   4
  14  -8   1 280.414 952.143   4
 -14   8   1-1345.63 1161.77   6
 -14  -8   0 324.293 557.629   2
  14   8   0 665.256 684.281   1
 -14   8   0-553.908 920.333   6
 -14  -8   1 1444.42 1246.16   2
 -14   8  -1 2158.44 953.081   6
  14   8   1 1016.35 815.817   1
  15   0   0 683.740 442.284   2
 -15   0   0-1372.72 731.489   4
  15   0   0 75.1635 685.693   4
 -15   0   0 754.712 592.148   2
 -15   0   1 19145.8 1878.32   4
  15   0   1 21083.2 2046.59   4
  15   0  -1 21877.3 2039.54   4
 -15   0  -1 22666.7 1850.66   2
  15   0  -1 19311.9 1720.93   7
 -15   0   1 19337.7 2051.20   2
  15   0   1 21120.0 1929.34   2
 -15   0  -1 19548.6 2079.54   6
  15   0   2 6031.86 1003.13   2
  15   0  -2 6137.57 1131.75   7
  15   0   2 7044.06 1338.06   4
 -15   0   2 5443.24 1042.34   4
 -15   0  -2 6245.33 1217.32   6
  15   0  -2 4895.55 1089.51   4
 -15   0   2 4245.54 1102.12   2
 -15   0  -3 24341.1 3157.34   3
  15   0   3 23008.6 2504.76   4
 -15   0   3 21600.2 2005.20   4
  15   0  -3 23449.3 1981.40   1
  15   0  -3 25506.9 2415.23   7
  15   0  -3 18401.5 2253.65   4
 -15   0   3 23670.6 2517.02   2
  15   0   3 23865.7 1831.16   2
 -15   0  -3 25176.8 2164.35   6
  15   0  -3 24973.5 1907.11   5
  15   0  -4-15.1589 615.321   5
 -15   0  -4-2165.80 1378.29   3
  15   0  -4 131.030 743.189   7
  15   0  -4-205.220 638.924   1
  15   0   4 1714.88 1056.57   4
 -15   0  -4-218.007 699.231   6
 -15   0   4-332.161 703.608   2
  15   0  -5 938.105 651.139   5
 -15   0  -5 620.434 762.553   3
  15   0  -5-19.4202 851.880   7
  15   0   5 939.483 972.756   4
 -15   0   5 829.043 695.260   2
  15   0  -6 2719.69 963.603   5
 -15   0  -6 804.059 1749.45   3
  15   0  -6 1870.31 1159.49   7
  15   0   6 2544.14 1431.42   4
 -15   0   6 4354.12 1184.86   2
 -15  -1  -6-353.327 1839.82   3
  15   1  -6 260.425 990.909   7
  15  -1   6 2844.50 1438.14   4
 -15   1   6 1414.36 1097.21   2
  15   1  -5 1403.17 649.215   5
 -15  -1  -5 647.770 1671.40   3
  15   1  -5 531.392 764.801   7
  15  -1   5 366.322 1079.44   4
 -15   1   5-1414.63 1080.29   2
  15   1  -4 3243.40 846.698   5
 -15  -1  -4 3726.08 1801.24   3
  15   1  -4 4156.72 1248.16   7
  15  -1   4 3461.56 1344.05   4
 -15   1   4 3073.04 761.910   4
 -15  -1  -4 3628.80 844.702   6
  15   1  -4 2474.50 801.225   1
 -15   1   4 2462.37 1051.98   2
  15  -1   4 3515.37 856.428   2
 -15  -1  -3-15.4748 1309.32   3
  15   1  -3 319.128 348.071   5
  15   1  -3 691.971 306.823   1
  15  -1   3-103.937 498.962   7
  15   1  -3 478.285 917.529   7
  15  -1   3-394.087 997.260   4
 -15   1   3 129.728 337.418   4
 -15  -1  -3 9.44861 541.686   6
 -15   1   3-895.031 817.846   2
  15  -1   3-239.751 501.924   2
 -15  -1  -2 8583.14 1089.77   2
  15  -1   2 9799.49 1332.36   2
  15   1  -2 8798.86 1378.09   7
 -15   1   2 7509.07 1178.38   4
  15  -1   2 9063.15 1522.34   4
 -15  -1  -2 10162.4 1447.83   6
 -15   1   2 7900.63 1382.85   2
  15   1  -2 9138.14 1562.94   4
 -15   1   1 22734.0 1958.91   4
  15  -1   1 23523.2 2124.19   4
  15   1  -1 17851.9 1968.05   4
 -15   1   1 19601.0 1965.18   2
 -15  -1  -1 22087.4 1849.03   2
  15   1  -1 18675.9 1862.66   7
  15  -1   1 22572.5 2010.67   2
 -15   1   0 21090.2 1980.51   4
  15  -1   0 15725.7 1736.30   4
  15   1   0 18595.5 1954.10   4
 -15   1   0 18371.0 1811.55   2
  15  -1   0 15182.9 1314.40   7
 -15  -1   0 18877.1 1866.01   2
  15  -1   0 18992.7 1926.41   2
  15   1   0 21224.4 2050.94   2
 -15   1   0 16610.2 1996.34   6
  15   1   1 21720.6 2151.71   4
  15  -1  -1 18820.3 1814.36   4
  15  -1  -1 18645.7 1527.73   7
 -15  -1   1 20242.0 2080.61   2
  15   1   1 19730.4 1902.67   2
 -15   1  -1 17626.5 2039.71   6
  15   1   1 16496.8 1616.95   5
 -15  -1   2 7728.90 1483.15   2
  15   1   2 10398.1 1572.25   4
  15  -1  -2 9852.72 1341.77   4
  15  -1  -2 8090.25 1230.90   7
  15   1   2 10032.6 1256.67   2
 -15   1  -2 9396.77 1484.07   6
 -15   1  -2 8555.94 1791.85   3
 -15  -1   3-1131.90 918.069   2
 -15   1  -3-335.166 559.400   3
  15  -1  -3-205.385 611.117   5
  15   1   3-249.742 504.151   2
  15  -1  -3 347.321 877.141   7
  15   1   3-510.134 849.800   4
 -15   1  -3-205.920 622.203   6
  15  -1  -3 745.164 626.465   4
 -15  -1   4 3466.29 1228.06   2
  15  -1  -4 3949.71 1133.18   5
 -15   1  -4 5398.03 1847.49   3
  15  -1  -4 3702.08 1360.63   7
  15   1   4 3541.94 1317.67   4
 -15   1  -4 3815.83 997.414   6
 -15  -1   5 51.6728 307.186   2
  15  -1  -5 1302.70 822.099   5
 -15   1  -5 2290.74 1508.07   3
  15  -1  -5 425.162 836.289   7
 -15   1  -5 79.1608 591.589   6
  15   1   5 772.814 893.072   4
 -15  -1   6-735.767 1477.92   2
  15  -1  -6-584.746 838.063   5
  15  -1  -6 1010.69 1099.16   7
  15   1   6-19.1902 1239.19   4
 -15  -2  -6-1661.94 1902.30   3
  15   2  -6-2410.10 1599.73   7
  15  -2   6 596.495 1213.90   4
 -15   2   6-776.047 618.493   2
 -15   2   6-960.396 1066.37   6
 -15  -2  -5 403.049 2052.84   3
  15   2  -5 1381.61 1189.08   7
  15  -2   5 1578.38 1297.60   4
 -15   2   5 2421.64 1034.63   2
 -15   2   5-52.9005 594.740   6
 -15  -2  -4 13856.7 2734.07   3
  15  -2   4 16096.8 2352.12   4
 -15   2   4 10813.4 1310.64   4
 -15   2   4 17904.8 2189.20   2
  15  -2   4 13089.3 1667.44   2
  15   2  -4 10852.2 2107.43   7
 -15  -2  -4 13810.1 1357.89   6
 -15   2   4 13443.7 2115.06   6
  15   2  -4 13109.7 1194.57   5
 -15  -2  -3 10000.4 2242.96   3
  15  -2   3 11886.3 1825.62   4
 -15   2   3 8822.16 1210.34   4
  15  -2   3 8452.57 1171.38   7
  15   2  -3 9795.83 1622.08   7
 -15   2   3 9591.37 1596.40   2
 -15  -2  -3 8467.53 1274.01   6
  15  -2   3 8587.11 1311.50   2
 -15   2   3 8029.36 1584.28   6
  15   2  -3 9038.27 846.205   5
 -15   2   2 16448.2 1657.16   4
  15  -2   2 18020.3 2119.07   4
  15  -2   2 15976.9 1282.00   7
 -15   2   2 16810.2 2025.73   2
 -15  -2  -2 15913.5 1444.31   2
  15   2  -2 14531.6 2079.39   4
  15   2  -2 14496.8 1804.40   7
  15  -2   2 17356.1 1876.75   2
 -15   2   2 14247.8 2045.78   6
  15   2  -2 15184.2 973.394   5
 -15   2   1-136.517 913.694   2
 -15   2   1-86.1550 565.027   4
  15  -2   1 726.672 681.968   4
 -15   2   1 241.178 766.619   6
  15   2  -1 205.770 892.772   4
  15  -2   1 555.821 649.166   2
 -15  -2  -1 335.882 527.976   2
 -15  -2   0 9374.49 1422.13   2
  15  -2   0 11382.8 1471.73   4
  15   2   0 11796.7 1722.76   4
  15  -2   0 11509.7 976.700   7
 -15   2   0 9890.13 1437.47   4
  15   2   0 11741.1 1624.95   2
 -15   2   0 14199.5 1935.78   6
  15   2   0 10791.0 1207.70   5
  15   2   1 302.029 580.756   5
 -15  -2   1 686.827 689.676   2
  15  -2  -1 161.170 389.129   7
  15   2   1 276.893 587.766   2
  15  -2  -1 8.95117 582.392   4
  15   2   1-116.773 889.787   4
 -15   2  -1-464.528 881.288   6
 -15   2  -2 18594.5 2577.81   3
  15   2   2 16220.9 2030.24   4
  15  -2  -2 16294.4 1642.57   4
  15  -2  -2 15360.8 1639.30   7
 -15  -2   2 15822.4 2108.63   2
 -15   2  -2 15999.6 2080.86   6
  15   2   2 16895.2 1635.06   2
  15   2   2 16539.2 1888.49   5
 -15  -2   3 9112.29 1828.13   2
 -15   2  -3 7538.23 1837.88   3
  15  -2  -3 9416.93 1422.31   5
  15  -2  -3 8152.54 1458.95   7
  15   2   3 9588.72 1588.81   4
 -15   2  -3 10244.1 1625.23   6
  15  -2  -3 9557.18 1319.90   4
 -15  -2   4 12624.6 2145.84   2
 -15   2  -4 15116.6 2963.01   3
  15  -2  -4 13154.7 1986.48   7
 -15   2  -4 13578.4 1921.25   6
  15   2   4 14874.2 2183.30   4
  15  -2  -4 15298.9 1943.26   5
 -15  -2   5 3130.82 1072.28   2
  15  -2  -5 501.756 740.110   5
 -15   2  -5 2853.69 1845.93   3
  15  -2  -5 4044.21 1333.06   7
  15   2   5 3552.23 1325.28   4
 -15  -2   6 778.453 716.435   2
  15  -2  -6 2345.15 976.452   5
  15  -2  -6-404.894 934.396   7
  15   2   6 546.901 1278.58   4
 -15  -3  -5 993.132 1549.35   3
  15   3  -5 990.023 1112.28   7
  15  -3   5 3457.75 1696.09   4
 -15   3   5 1909.95 868.376   6
 -15  -3  -4 31.1271 1469.58   3
  15   3  -4 27.0757 914.398   7
  15  -3   4-945.590 870.431   4
 -15   3   4 1507.39 777.568   6
 -15  -3  -3 1956.87 1282.51   3
  15  -3   3 491.169 461.319   7
 -15   3   3 5.45165 498.946   4
  15   3  -3 1871.06 910.440   7
  15  -3   3 786.373 887.758   4
 -15   3   3 902.267 616.133   7
 -15  -3  -3 829.200 302.574   2
 -15   3   3 608.006 707.181   6
 -15  -3  -3 1139.02 518.950   6
  15  -3   2 4464.94 589.377   7
 -15   3   2 4372.14 947.401   4
  15   3  -2 4810.63 1277.10   7
  15  -3   2 4624.13 1202.17   4
 -15   3   2 4584.75 1318.72   6
 -15  -3  -2 4821.17 898.917   2
  15   3  -2 3924.34 1335.09   4
 -15   3   1 18747.4 1855.64   4
  15  -3   1 19528.3 2072.17   4
  15  -3   1 18984.3 797.830   7
  15   3  -1 16688.0 2319.69   4
  15  -3   1 19433.7 748.425   7
 -15  -3  -1 20296.5 1870.05   2
 -15   3   1 19139.1 2423.10   6
  15   3  -1 19795.0 1115.13   5
 -15  -3   0 8018.54 1352.62   2
  15  -3   0 8926.90 660.241   7
 -15   3   0 9108.50 1440.76   4
  15  -3   0 7639.23 1249.81   4
 -15   3   0 8641.86 1613.43   6
  15   3   0 9865.62 1597.35   4
  15   3   0 9207.00 1088.62   5
  15  -3  -1 19205.0 1757.92   4
  15   3   1 17767.4 2108.13   4
  15  -3  -1 18377.4 1320.27   7
 -15  -3   1 20173.8 2276.32   2
 -15   3  -1 19915.4 2378.06   6
  15   3   1 18506.1 1764.34   5
  15   3   2 4727.59 1193.04   5
 -15   3  -2 4238.21 1258.20   3
 -15  -3   2 3279.56 1220.96   2
  15  -3  -2 4201.30 841.917   7
 -15   3  -2 3573.46 1193.66   6
  15   3   2 2717.26 1086.50   4
  15  -3  -2 4488.25 840.664   4
 -15   3  -3 1469.72 1390.53   3
  15  -3  -3 1026.65 650.060   5
 -15  -3   3 289.678 989.184   2
  15  -3  -3-67.7814 776.807   7
 -15   3  -3 1983.89 992.296   6
  15   3   3 634.846 702.836   4
  15  -3  -3 893.374 521.484   4
  15  -3  -4-223.709 631.592   5
 -15  -3   4 1023.94 882.320   2
 -15   3  -4 2284.93 1325.39   3
  15  -3  -4 55.0873 727.020   7
 -15   3  -4-529.794 737.068   6
  15   3   4 1035.56 874.893   4
  15  -3  -5 267.984 742.627   5
 -15  -3   5 2798.93 1256.53   2
  15  -3  -5 3002.38 1055.26   7
  15   3   5 2607.59 1164.17   4
 -15  -4  -5 2456.91 1982.22   3
  15   4  -5 3362.58 1560.66   7
  15  -4   5 763.410 1398.89   4
 -15   4   5 3096.78 1053.81   6
 -15  -4  -4 2685.53 1559.25   3
  15   4  -4 1370.76 1045.72   7
  15  -4   4 3084.21 1364.05   4
 -15   4   4 2450.95 1079.35   6
 -15  -4  -3 2052.06 1203.66   3
  15  -4   3 1750.92 974.837   4
  15   4  -3 2654.63 1047.23   7
 -15   4   3 2680.10 1051.54   6
 -15  -4  -3 1856.75 525.047   2
 -15   4   2 15727.6 1609.08   4
  15  -4   2 16253.4 2138.05   4
 -15  -4  -2 15451.3 1625.81   2
  15   4  -2 14930.1 2162.95   7
 -15   4   2 14702.3 2255.24   6
 -15   4   1 12207.5 1600.78   4
 -15  -4  -1 14615.7 1751.73   2
  15  -4   1 11256.1 1676.77   4
 -15   4   1 12230.6 1966.67   6
  15   4  -1 11461.3 2139.17   4
  15  -4   0 21028.7 2023.46   4
  15   4   0 19215.1 2478.50   4
 -15  -4   0 21361.8 2315.23   2
 -15   4   0 21860.5 2632.06   6
  15   4   0 18884.5 1381.14   5
 -15   4  -1 10747.0 1951.20   3
  15  -4  -1 12210.2 1469.96   4
 -15  -4   1 15249.3 2072.09   2
 -15   4  -1 11871.2 2069.50   6
  15   4   1 13342.1 2042.51   4
  15   4   1 12520.0 1394.31   5
 -15   4  -2 18331.1 2650.30   3
  15  -4  -2 16162.0 1421.24   7
  15  -4  -2 16410.9 1478.29   4
  15   4   2 15850.9 2135.07   4
 -15  -4   2 17554.3 2352.30   2
 -15   4  -2 14902.9 2261.94   6
  15  -4  -3 2379.37 998.254   5
 -15   4  -3 2094.13 1321.76   3
 -15  -4   3 2019.64 1023.75   2
  15  -4  -3 2056.95 672.978   7
 -15   4  -3 786.188 608.425   6
  15   4   3 1212.13 932.144   4
  15  -4  -3 2381.06 584.310   4
  15  -4  -4 2916.29 1337.92   5
 -15  -4   4 3057.64 1500.23   2
 -15   4  -4 3373.35 1656.89   3
  15  -4  -4 2056.03 946.834   7
 -15   4  -4 2465.30 1272.83   6
  15   4   4 3536.79 1335.75   4
  15  -4  -5 1620.86 1305.64   5
 -15  -4   5 1679.24 1193.85   2
 -15   4  -5 1486.38 1390.99   3
  15   4   5 2746.81 1456.40   4
 -15  -5  -4 259.825 1723.26   3
  15  -5   4 3434.82 1210.87   4
  15   5  -4 3047.93 1181.60   7
 -15   5   4 733.963 1097.90   6
 -15  -5  -3 3681.01 1768.07   3
  15  -5   3 3589.18 1423.66   4
  15   5  -3 2288.41 1131.36   7
 -15   5   3 1389.83 1160.73   6
 -15  -5  -2 5595.37 1092.89   2
  15  -5   2 7088.41 1659.06   4
  15   5  -2 6817.30 1603.22   7
 -15   5   2 5183.86 1418.14   6
 -15  -5  -1 3247.46 1026.88   2
  15  -5   1 4332.99 1164.25   4
 -15   5   1 2438.56 1174.85   6
 -15  -5   0 4201.96 1224.12   2
  15  -5   0 5030.02 1136.70   4
 -15   5   0 4568.42 1487.99   6
  15   5   0 5278.50 1464.86   4
 -15   5   0 4513.97 1411.47   3
 -15   5  -1 1628.38 1064.12   3
  15   5   1 3114.12 818.702   5
 -15  -5   1 2893.54 1244.20   2
  15  -5  -1 3011.71 745.673   4
 -15   5  -1 2819.27 1217.13   6
  15   5   1 2883.47 1299.64   4
 -15   5  -2 7009.50 1823.08   3
  15  -5  -2 8264.89 1048.88   4
 -15  -5   2 7970.82 1866.84   2
 -15   5  -2 11227.9 1928.92   6
  15   5   2 4810.49 1478.02   4
  15  -5  -3 1202.31 1000.23   5
 -15   5  -3 3545.32 1578.98   3
 -15  -5   3 2383.01 1048.54   2
 -15   5  -3 2623.69 1065.14   6
  15   5   3 2493.85 1174.13   4
  15  -5  -4 692.461 882.455   5
 -15   5  -4 199.841 885.932   3
 -15  -5   4 1430.28 1151.07   2
 -15   5  -4 202.150 1089.15   6
  15   5   4 463.047 991.457   4
  15  -6   4 241.936 1122.07   4
  15   6  -4 951.282 966.192   7
 -15   6   4 1921.45 1188.40   6
 -15  -6  -3 4239.08 1554.58   3
  15  -6   3 4727.86 1442.94   4
  15   6  -3 2194.67 1323.40   7
 -15   6   3 2888.74 1337.73   6
 -15  -6  -2 1099.35 846.303   2
  15  -6   2 781.243 1018.46   4
  15   6  -2 1162.63 1000.27   7
 -15   6   2 1944.17 1037.77   6
 -15  -6  -2 2344.67 1250.81   3
 -15  -6  -1-928.989 804.859   2
  15  -6   1 787.580 930.233   4
 -15   6   1-1641.24 1130.80   6
 -15   6   0 115.244 811.009   3
 -15  -6   0 570.758 762.059   2
  15  -6   0-165.577 638.438   4
 -15   6   0-835.377 1091.24   6
 -15   6  -1 670.227 1050.33   3
 -15  -6   1 1083.88 1110.62   2
  15  -6  -1 763.827 520.920   4
 -15   6  -1-2097.20 1012.02   6
  15   6   1 4.92237 1225.62   4
 -15   6  -2-2301.22 1482.34   3
 -15  -6   2 997.856 1248.37   2
 -15   6  -2 131.778 1306.16   6
  15   6   2 840.839 1008.08   4
  15  -6  -3 2790.78 1193.15   5
 -15   6  -3 6664.32 2137.74   3
 -15  -6   3 2051.64 1323.93   2
 -15   6  -3 5226.73 1614.18   6
  15   6   3 4799.25 1532.61   4
  15  -6  -4 2348.56 1292.74   5
 -15  -6   4 2478.25 1073.53   2
  15   6   4 2370.05 1368.69   4
  15  -7   3 1137.39 790.682   4
  15   7  -3-1888.15 1513.86   7
 -15   7   3-1802.45 1190.55   6
  15  -7   2 452.878 972.039   4
  15   7  -2-1204.55 1215.89   7
 -15   7   2 450.972 1073.95   6
 -15  -7  -1 2086.20 1010.77   2
  15  -7   1 980.780 841.976   4
 -15  -7   0 1209.20 1304.62   2
  15  -7   0 2085.89 967.916   4
 -15   7   0 3310.31 1455.59   6
 -15   7  -1 605.843 499.875   3
 -15  -7   1 1539.91 1064.61   2
 -15   7  -1 2753.89 1483.53   6
  15  -7  -2 536.189 862.820   5
 -15   7  -2-1958.62 1555.75   3
 -15  -7   2 2350.62 1379.54   2
 -15   7  -2 1232.93 1182.69   6
  15   7   2 2069.31 860.554   4
  15  -7  -3-268.160 1349.63   5
 -15  -7   3 1652.85 991.356   2
  15   7   3 2318.80 1142.85   4
 -15  -8   0 574.409 1180.84   2
 -15   8   0-618.253 594.286   6
  15   8   0 1384.71 616.508   1
  16   0   0 62973.1 3492.48   4
 -16   0   0 63198.9 3357.00   2
  16   0   0 61094.3 3573.63   2
  16   0   1 21026.1 2115.99   4
 -16   0  -1 21776.6 1942.33   2
  16   0  -1 22355.4 2117.04   4
  16   0  -1 21622.0 1859.46   7
 -16   0   1 18914.4 2064.89   2
  16   0   1 20372.3 2013.36   2
 -16   0  -1 19877.0 2220.18   6
  16   0   2 1723.25 722.443   2
  16   0  -2 1740.88 790.624   7
  16   0   2 1182.16 792.593   4
 -16   0  -2 2367.66 883.100   6
  16   0  -2 1640.06 763.609   4
 -16   0   2 1879.21 970.444   2
 -16   0  -3 2547.20 1274.71   3
  16   0  -3 1360.35 630.601   5
  16   0   3 1839.82 652.471   2
  16   0  -3 837.391 725.211   7
  16   0   3 1481.88 1037.90   4
 -16   0  -3 2711.51 882.429   6
 -16   0   3 2211.71 1018.11   2
  16   0  -3 2606.74 1084.82   4
  16   0  -4 5645.96 1106.29   5
 -16   0  -4 3844.83 1826.88   3
  16   0  -4 5242.96 1386.77   7
  16   0   4 3550.73 1405.03   4
 -16   0  -4 4410.42 1020.47   6
 -16   0   4 3988.64 1278.13   2
  16   0  -5 255.587 461.302   5
 -16   0  -5-2399.49 1514.19   3
  16   0  -5-1333.01 1245.95   7
  16   0   5 193.665 707.818   4
 -16   0   5 1833.42 749.975   2
 -16   0  -6-2552.33 2101.15   3
  16   0  -6 1066.62 840.202   7
  16   0   6-572.058 1383.37   4
 -16   0   6 1274.71 900.018   2
 -16  -1  -6-2862.45 2155.84   3
  16   1  -6 3177.13 1761.82   7
  16  -1   6 1083.23 1153.12   4
 -16   1   6-515.988 558.590   2
 -16  -1  -5 286.211 1680.51   3
  16   1  -5-1377.13 1036.93   7
  16  -1   5 2818.34 1296.54   4
 -16   1   5 796.001 833.999   2
 -16  -1  -4 10546.9 2523.69   3
  16  -1   4 16136.3 2245.19   4
 -16   1   4 12886.0 1683.93   4
  16   1  -4 15453.0 2229.36   7
 -16   1   4 15088.6 2227.12   2
 -16  -1  -4 14645.3 1623.94   6
  16   1  -4 13017.5 1533.59   5
 -16  -1  -3 22625.4 3245.02   3
  16  -1   3 23190.5 2583.18   4
 -16   1   3 21276.8 1980.44   4
  16  -1   3 18361.7 1716.15   7
  16   1  -3 20934.7 2369.16   7
 -16   1   3 22921.3 2498.81   2
  16   1  -3 22908.0 1912.23   1
  16  -1   3 22476.1 2000.16   2
 -16  -1  -3 21313.0 2036.67   6
  16   1  -3 22427.1 1645.18   5
 -16   1   2 9057.24 1314.20   4
 -16  -1  -2 9004.15 1186.95   2
  16  -1   2 12018.3 1618.76   2
  16   1  -2 10403.8 1511.06   7
  16  -1   2 9023.25 1513.12   4
 -16   1   2 8953.58 1560.16   2
 -16  -1  -2 8427.18 1366.30   6
  16   1  -2 9342.52 1638.14   4
 -16   1   1 13835.4 1618.72   4
  16  -1   1 12676.6 1717.09   4
 -16   1   1 10630.2 1581.37   2
 -16  -1  -1 11498.1 1461.74   2
  16   1  -1 11684.5 1589.43   7
  16  -1   1 11592.2 1587.97   2
  16   1  -1 10027.7 1620.45   4
  16   1   0 606.293 659.143   2
  16  -1   0 6.50120 561.440   7
 -16   1   0 836.796 751.571   2
  16  -1   0 1279.10 774.749   4
  16   1   0 44.2381 865.654   4
 -16   1   0 412.033 749.153   6
 -16  -1   0 21.7773 644.867   2
  16   1   1 13029.7 1790.59   4
  16  -1  -1 12079.5 1573.39   4
  16  -1  -1 10585.9 1224.16   7
 -16  -1   1 12673.2 1747.29   2
  16   1   1 12756.6 1598.93   2
 -16   1  -1 11049.7 1716.92   6
  16   1   1 11560.7 1357.57   5
 -16  -1   2 9729.23 1768.53   2
  16  -1  -2 10113.5 1446.95   4
  16  -1  -2 7948.29 1317.96   7
  16   1   2 9280.42 1318.34   2
 -16   1  -2 11399.5 1631.85   6
  16   1   2 7483.95 1436.23   4
 -16   1  -2 11647.6 2064.89   3
 -16   1  -3 20626.8 3071.29   3
  16   1   3 24267.1 2529.18   4
  16  -1  -3 21746.3 2262.82   7
  16  -1  -3 26718.9 2428.56   4
 -16  -1   3 19578.6 2424.16   2
  16   1   3 23798.9 1779.73   2
 -16   1  -3 20484.5 2236.36   6
  16  -1  -3 23820.8 2072.96   5
 -16  -1   4 14479.5 2269.57   2
 -16   1  -4 16343.1 3020.51   3
  16   1   4 16406.9 2304.16   4
  16  -1  -4 15772.8 2256.44   7
 -16   1  -4 14279.9 1904.94   6
  16  -1  -4 12797.5 1707.58   5
 -16  -1   5 378.972 722.816   2
  16  -1  -5 261.429 884.682   5
 -16   1  -5 1513.01 948.717   3
  16  -1  -5 167.564 1174.91   7
  16   1   5 2045.82 976.678   4
 -16   1  -5 338.383 425.998   6
  16  -1  -6 544.222 935.567   5
 -16   1  -6 1077.90 2093.42   3
  16  -1  -6 311.537 1184.43   7
  16   1   6 1148.06 1342.03   4
 -16  -1   6-1831.91 827.471   2
 -16  -2  -5 222.453 1292.68   3
  16   2  -5-1494.63 1341.13   7
  16  -2   5 213.035 1130.19   4
 -16   2   5 429.096 758.512   2
 -16   2   5-168.770 833.590   6
 -16  -2  -4 429.285 1250.69   3
  16   2  -4 392.645 877.314   7
  16  -2   4-8.89014 1076.07   4
 -16  -2  -4 707.563 468.643   6
 -16   2   4-724.644 716.939   2
 -16   2   4 80.4375 320.028   6
 -16  -2  -3 3723.53 1641.77   3
  16   2  -3 3978.25 684.374   5
  16  -2   3 5638.22 949.254   7
  16   2  -3 3628.76 1159.50   7
 -16   2   3 2959.06 767.420   4
  16  -2   3 4291.11 1405.13   4
 -16   2   3 3854.53 1303.64   2
 -16  -2  -3 4539.68 1076.58   6
 -16   2   3 3502.51 1337.13   6
  16  -2   3 3367.82 1099.24   2
 -16   2   2 28231.1 2209.91   4
  16  -2   2 28745.7 2688.22   4
 -16   2   2 25916.7 2527.31   2
 -16  -2  -2 30007.6 2036.99   2
  16   2  -2 27197.6 2832.01   4
  16   2  -2 32218.6 2647.14   7
 -16   2   2 25423.1 2787.86   6
  16   2  -2 27598.0 1399.40   5
 -16   2   1 57021.0 3213.19   4
  16  -2   1 60864.4 3542.46   4
 -16   2   1 59433.0 3532.23   2
  16   2  -1 62372.4 3856.62   4
  16   2  -1 55707.7 3412.26   7
 -16  -2  -1 62271.9 3209.90   2
 -16   2   1 53933.9 3808.37   6
  16  -2   0 18699.3 1916.35   4
  16   2   0 19009.5 2154.93   4
  16  -2   0 22315.6 1389.77   7
 -16  -2   0 19583.3 2041.97   2
 -16   2   0 21407.3 2474.11   6
  16   2   0 17120.5 1531.85   5
  16  -2  -1 61521.9 3207.66   4
  16   2   1 60546.0 3633.50   4
  16  -2  -1 62166.3 2667.35   7
 -16  -2   1 60186.8 3657.19   2
  16   2   1 64325.1 3499.68   2
 -16   2  -1 59525.3 3858.52   6
  16   2   1 62600.5 3191.07   5
 -16   2  -2 30836.6 3325.35   3
  16   2   2 28370.1 2681.77   4
  16  -2  -2 27074.0 2153.70   4
  16  -2  -2 24527.7 2054.75   7
 -16  -2   2 28383.1 2751.57   2
 -16   2  -2 27174.6 2708.69   6
  16   2   2 26003.6 2115.03   2
 -16  -2   3 5871.90 1522.40   2
 -16   2  -3 3377.32 1363.75   3
  16  -2  -3 4642.69 1049.66   5
  16  -2  -3 3308.87 1043.27   7
  16   2   3 3670.00 1262.30   4
 -16   2  -3 5096.36 1226.68   6
  16  -2  -3 3183.44 945.997   4
 -16  -2   4-1814.25 1147.82   2
  16  -2  -4-1686.23 887.908   5
 -16   2  -4-105.021 1331.44   3
  16  -2  -4 743.560 741.793   7
  16   2   4 983.344 1061.00   4
 -16   2  -4-281.462 681.879   6
 -16  -2   5 1725.80 1244.19   2
  16  -2  -5 512.988 944.951   5
 -16   2  -5-2390.54 1716.86   3
  16  -2  -5 362.209 1131.64   7
 -16   2  -5 44.6484 613.158   6
  16   2   5-172.816 1134.33   4
 -16  -3  -5 4404.09 2160.89   3
  16   3  -5 6615.04 1712.08   7
  16  -3   5 7756.47 1973.88   4
 -16   3   5 6112.59 1760.12   6
 -16  -3  -4 3989.79 1879.55   3
  16   3  -4 3032.92 1209.43   7
  16  -3   4 3813.90 1297.42   4
 -16   3   4 2997.11 1090.78   6
 -16  -3  -3 1334.34 1190.95   3
 -16   3   3 3013.63 646.232   4
  16   3  -3 2965.31 1165.56   7
  16  -3   3 2938.21 1099.91   4
 -16  -3  -3 1537.44 482.604   2
 -16   3   3 1791.79 918.233   6
 -16  -3  -3 859.994 611.964   6
 -16   3   2 21529.5 2002.03   4
  16  -3   2 26100.4 2664.87   4
  16  -3   2 24147.3 1321.46   7
  16   3  -2 25822.6 2602.76   7
  16   3  -2 28790.2 3059.39   4
 -16  -3  -2 24989.0 1967.19   2
 -16   3   2 23249.2 2736.15   6
 -16  -3  -1 8480.06 1345.61   2
  16  -3   1 7740.14 576.732   7
  16  -3   1 8545.67 572.639   7
 -16   3   1 9454.71 1367.94   4
  16  -3   1 8184.86 1505.76   4
 -16   3   1 7102.05 1712.14   6
  16   3  -1 8849.48 829.976   5
  16   3  -1 8159.00 1636.09   4
  16   3   0 2686.87 635.287   5
 -16  -3   0 2761.14 956.729   2
  16  -3   0 2763.67 455.964   7
  16  -3   0 2304.26 830.428   4
 -16   3   0 2850.30 1163.67   6
  16   3   0 2430.81 1082.33   4
  16   3   1 7917.12 1271.52   5
 -16  -3   1 8538.94 1579.91   2
  16  -3  -1 8079.88 943.437   7
  16  -3  -1 8112.33 1243.97   4
 -16   3  -1 9801.91 1800.35   6
  16   3   1 8515.42 1600.03   4
 -16   3  -2 23365.1 3106.31   3
  16   3   2 26430.5 2661.61   4
  16  -3  -2 26042.9 2013.35   4
  16  -3  -2 24189.9 1977.98   7
 -16  -3   2 24917.7 2748.53   2
 -16   3  -2 24500.8 2733.80   6
 -16   3  -3 1645.51 1101.24   3
 -16  -3   3 1458.16 982.169   2
  16  -3  -3 1350.45 834.683   5
  16  -3  -3 2027.17 824.550   7
 -16   3  -3 1051.67 714.510   6
  16   3   3 1326.89 948.879   4
  16  -3  -3 2199.49 750.802   4
  16  -3  -4 2963.49 1159.24   5
 -16  -3   4 2090.68 1157.01   2
 -16   3  -4 1010.28 1201.93   3
  16  -3  -4 2453.75 986.437   7
 -16   3  -4 1988.24 913.455   6
  16   3   4 1995.63 1005.74   4
  16  -3  -5 6054.66 1634.09   5
 -16  -3   5 5189.64 1753.59   2
 -16   3  -5 5863.13 2238.77   3
  16  -3  -5 6657.21 1623.71   7
  16   3   5 3334.70 1397.24   4
 -16  -4  -5-5321.99 2421.77   3
  16   4  -5-3417.71 1650.96   7
  16  -4   5 1003.14 968.984   4
 -16   4   5 499.713 895.407   6
 -16  -4  -4 1986.14 1785.35   3
  16   4  -4 4966.57 1251.67   7
  16  -4   4 2406.62 1356.72   4
 -16   4   4 341.833 665.025   6
 -16  -4  -3 1963.35 1265.46   3
  16   4  -3-779.899 824.743   7
  16  -4   3 528.398 866.351   4
 -16   4   3 1301.45 953.897   6
 -16  -4  -3 827.356 515.833   2
 -16  -4  -2 6051.75 1073.64   2
 -16   4   2 5279.21 1086.34   4
  16  -4   2 9316.53 1716.86   4
  16   4  -2 5400.53 1471.92   7
 -16   4   2 6201.58 1478.74   6
 -16  -4  -1 9963.61 1540.70   2
 -16   4   1 10277.7 1545.39   4
  16  -4   1 9259.13 1545.87   4
 -16   4   1 8623.67 1808.14   6
  16   4  -1 6953.96 2056.21   4
  16  -4   0 28275.4 2331.41   4
  16   4   0 25821.6 2744.21   4
 -16  -4   0 25918.4 2550.53   2
 -16   4   0 26233.8 2921.11   6
  16   4   0 26450.2 1658.60   5
 -16   4  -1 6065.24 1923.42   3
  16   4   1 7941.29 1262.70   5
 -16  -4   1 10015.9 1856.69   2
  16  -4  -1 9568.23 1398.10   4
 -16   4  -1 12514.2 2085.25   6
  16   4   1 9647.78 1879.19   4
 -16   4  -2 7005.79 1791.19   3
 -16  -4   2 7349.35 1662.95   2
  16  -4  -2 6623.24 949.745   7
 -16   4  -2 6007.08 1547.35   6
  16  -4  -2 6059.91 1035.88   4
  16   4   2 6029.11 1525.30   4
  16  -4  -3 575.618 647.141   5
 -16   4  -3 178.863 1144.16   3
 -16  -4   3 1092.77 934.348   2
  16  -4  -3 171.788 522.006   7
 -16   4  -3-464.660 614.922   6
  16   4   3-82.1467 1058.89   4
  16  -4  -3 757.840 504.639   4
  16  -4  -4 1532.84 754.243   5
 -16  -4   4 931.708 844.259   2
 -16   4  -4 810.907 1330.68   3
  16  -4  -4 1954.68 873.356   7
 -16   4  -4 1692.98 1129.59   6
  16   4   4 2078.56 942.060   4
  16  -4  -5 1707.14 1125.44   5
 -16  -4   5 1896.61 979.921   2
  16  -4  -5 1860.08 987.740   7
  16   4   5 1935.91 1240.83   4
 -16  -5  -4 6481.52 2057.90   3
  16  -5   4 5179.22 1587.49   4
  16   5  -4 7041.36 1711.82   7
 -16   5   4 6816.51 1862.15   6
 -16  -5  -3 5963.67 1931.45   3
  16  -5   3 5052.38 1623.43   4
  16   5  -3 3302.50 1384.99   7
 -16   5   3 5582.86 1634.14   6
 -16  -5  -2-868.550 640.225   2
  16  -5   2-553.423 653.115   4
  16   5  -2-186.387 951.714   7
 -16   5   2-237.681 772.029   6
 -16  -5  -1 5736.37 1312.17   2
  16  -5   1 5658.23 1337.05   4
 -16   5   1 5297.59 1588.04   6
  16   5  -1 5629.96 1589.46   4
 -16  -5   0 98.4368 656.254   2
  16  -5   0-112.215 732.129   4
 -16   5   0-96.0220 558.482   6
  16   5   0-567.479 875.181   4
 -16   5  -1 5818.06 1574.94   3
 -16  -5   1 4929.66 1522.18   2
  16  -5  -1 7210.65 1160.30   4
 -16   5  -1 5702.45 1579.89   6
  16   5   1 6584.48 1669.37   4
 -16   5  -2-468.128 1429.45   3
 -16  -5   2 164.001 1039.34   2
 -16   5  -2-858.562 1060.14   6
  16  -5  -2 373.870 412.676   4
  16   5   2 454.381 800.951   4
  16  -5  -3 3228.40 1284.34   5
 -16   5  -3 6733.52 1995.35   3
 -16  -5   3 5416.70 1744.35   2
 -16   5  -3 5126.26 1643.26   6
  16   5   3 1741.99 1294.01   4
  16  -5  -4 5824.29 1601.26   5
 -16  -5   4 5413.77 1807.16   2
 -16   5  -4 6388.29 2237.60   3
 -16   5  -4 4170.08 1550.32   6
  16   5   4 5856.17 1560.86   4
 -16  -6  -3 2221.54 1497.07   3
  16  -6   3 1686.64 1256.93   4
  16   6  -3 1866.45 1358.29   7
 -16   6   3 2036.90 1466.77   6
 -16  -6  -2 1898.03 647.572   2
  16  -6   2 749.915 802.370   4
  16   6  -2 378.493 1172.75   7
 -16   6   2 3035.47 1159.70   6
 -16  -6  -2 2457.39 1465.86   3
 -16  -6  -1 1496.88 959.193   2
  16  -6   1 554.345 821.189   4
 -16   6   1 967.647 893.124   6
 -16   6   0 817.322 826.630   3
 -16  -6   0 2350.18 1045.65   2
  16  -6   0 3009.77 923.304   4
 -16   6   0 1411.93 1197.05   6
  16   6   0 3582.09 1578.02   4
 -16   6  -1-498.825 675.689   3
 -16  -6   1 1282.12 878.369   2
  16  -6  -1 796.365 485.465   4
 -16   6  -1 1806.30 1074.12   6
  16   6   1 263.078 895.516   4
 -16   6  -2 479.875 1173.84   3
 -16  -6   2 1720.86 1146.24   2
 -16   6  -2 2458.05 1422.41   6
  16   6   2 2483.00 1280.76   4
  16  -6  -3 2027.97 1403.05   5
 -16   6  -3 3141.46 1813.35   3
 -16  -6   3 3305.95 1514.98   2
 -16   6  -3 2851.92 1360.93   6
  16   6   3 2548.66 1398.40   4
  16  -7   2 671.639 977.864   4
  16   7  -2-205.452 1086.01   7
 -16   7   2 768.203 905.168   6
 -16  -7  -1 1717.44 874.656   2
  16  -7   1-950.017 879.517   4
 -16   7   1-565.517 839.639   6
 -16  -7   0 312.536 1132.57   2
  16  -7   0 326.781 675.555   4
 -16   7   0 406.288 568.339   6
 -16  -7   1 2171.00 1202.36   2
 -16   7  -1 1939.24 1334.17   6
  16  -7  -2 4262.55 1379.06   5
 -16   7  -2-1566.20 1253.93   3
 -16  -7   2 2020.44 1056.44   2
 -16   7  -2-614.481 714.267   6
  16   7   2-2250.56 1699.48   4
  17   0   0-2.99408 886.575   4
 -17   0   0 16.6612 1069.04   2
  17   0   1 2252.98 847.306   2
  17   0  -1 4275.07 1005.79   7
  17   0   1 3857.87 1114.12   4
 -17   0  -1 3082.69 920.792   2
  17   0  -1 3981.18 1076.61   4
 -17   0  -1 3740.74 1155.81   6
 -17   0   1 4214.16 1166.47   2
  17   0   2 8649.82 1368.33   2
  17   0  -2 10863.4 1491.41   7
  17   0   2 10351.7 1663.73   4
 -17   0  -2 9486.04 1558.93   6
  17   0  -2 9205.17 1545.90   4
 -17   0   2 10089.5 1727.72   2
 -17   0  -3 11.6895 1354.49   3
  17   0  -3-52.6814 429.446   5
  17   0   3-121.219 560.352   2
  17   0  -3-723.231 624.732   7
  17   0   3 120.208 918.704   4
 -17   0  -3 58.7979 722.560   6
 -17   0   3-198.009 619.886   2
  17   0  -3 137.334 639.656   4
  17   0  -4 1132.45 736.835   5
 -17   0  -4-1360.00 1177.66   3
  17   0  -4-272.740 828.004   7
  17   0   4-636.111 1214.77   4
 -17   0  -4 1196.37 537.409   6
 -17   0   4 779.248 920.489   2
  17   0  -5 1755.52 597.969   5
 -17   0  -5 544.030 1477.16   3
  17   0  -5-1562.94 948.597   7
  17   0   5 105.550 903.036   4
 -17   0   5-395.369 562.783   2
 -17  -1  -5 107.437 1328.02   3
  17   1  -5-1567.16 1182.83   7
  17  -1   5 95.2377 836.015   4
 -17   1   5 1518.11 847.262   2
  17   1  -4 3540.39 889.729   5
 -17  -1  -4 4240.18 1804.65   3
  17   1  -4 3459.75 1243.37   7
  17  -1   4 4227.92 1409.46   4
 -17  -1  -4 2741.63 775.178   6
 -17   1   4 1855.62 1058.46   2
  17  -1   3 3056.52 915.862   2
 -17  -1  -3 3222.83 1497.36   3
  17   1  -3 1806.26 685.576   5
  17   1  -3 3213.72 878.383   1
  17  -1   3 3166.69 753.616   7
  17   1  -3 1885.20 1130.24   7
  17  -1   3 3015.16 1250.20   4
 -17  -1  -3 3358.35 965.318   6
 -17   1   3 2981.01 1142.90   2
  17   1  -3 3563.24 1346.33   4
  17  -1   2 5784.09 1250.16   2
 -17  -1  -2 6504.01 1070.28   2
  17   1  -2 5171.13 1187.00   7
  17  -1   2 6906.71 1383.93   4
 -17   1   2 6174.63 1381.59   2
 -17  -1  -2 5018.56 1200.79   6
  17   1  -2 5412.79 1413.62   4
 -17  -1  -1 12914.6 1591.59   2
  17   1  -1 11210.0 1621.91   7
  17  -1   1 10591.6 1647.90   4
 -17   1   1 11842.8 1790.58   2
  17   1  -1 10707.7 1690.17   4
  17  -1   0 2677.72 791.031   7
 -17   1   0 2713.47 956.533   2
  17  -1   0 4034.68 1107.57   4
  17   1   0 4610.16 1206.49   4
 -17   1   0 2100.07 1117.69   6
 -17  -1   0 3886.71 1165.58   2
  17   1   1 14233.5 1946.84   4
  17  -1  -1 13721.6 1695.68   4
  17  -1  -1 11305.8 1379.99   7
 -17  -1   1 12453.9 1779.21   2
  17   1   1 14126.3 1821.89   2
 -17   1  -1 13550.9 2008.01   6
  17   1   1 10720.4 1443.36   5
 -17  -1   2 4302.14 1367.33   2
  17   1   2 4713.44 1076.12   2
  17  -1  -2 5863.00 1190.30   7
  17   1   2 5390.01 1329.75   4
 -17   1  -2 5937.20 1267.72   6
  17  -1  -2 6652.58 1237.87   4
 -17   1  -2 3984.09 1426.80   3
 -17  -1   3 3645.74 1332.60   2
 -17   1  -3 4022.37 1561.06   3
  17  -1  -3 2900.29 874.511   5
  17   1   3 4962.83 998.874   2
  17  -1  -3 3486.08 1202.67   7
  17   1   3 3317.03 1248.51   4
 -17   1  -3 3961.98 1152.59   6
  17  -1  -3 2843.60 933.491   4
 -17  -1   4 3855.79 1055.72   2
  17  -1  -4 3168.86 969.856   5
 -17   1  -4 3073.88 1777.52   3
  17  -1  -4 1424.84 851.595   7
  17   1   4 3734.43 1393.36   4
 -17   1  -4 2904.80 857.132   6
 -17  -1   5 77.2473 870.856   2
  17  -1  -5 250.080 772.060   5
 -17   1  -5-724.193 1874.37   3
  17  -1  -5 925.853 973.319   7
  17   1   5 575.522 1066.30   4
 -17  -2  -5 1058.25 1589.22   3
  17   2  -5 1205.09 1234.07   7
  17  -2   5 1055.63 1528.72   4
 -17   2   5 2919.84 1043.73   2
 -17   2   5 1175.77 980.207   6
 -17  -2  -4 3743.74 1843.68   3
  17   2  -4 3834.80 1216.61   7
  17  -2   4 4121.39 1516.12   4
 -17   2   4 3695.34 1126.44   2
 -17  -2  -4 3228.59 804.879   6
 -17   2   4 1056.95 1000.92   6
 -17  -2  -3 4144.18 1897.80   3
  17  -2   3 4753.57 989.908   7
  17   2  -3 7343.36 1556.65   7
 -17   2   3 5000.69 1031.15   4
  17  -2   3 6130.30 1442.55   4
 -17   2   3 6782.02 1465.14   2
 -17  -2  -3 7428.29 1312.38   6
 -17   2   3 6157.21 1659.95   6
  17   2  -3 6611.24 819.182   5
  17   2  -2 2335.33 478.789   5
 -17   2   2 1183.15 672.053   4
  17   2  -2 2027.51 1050.74   7
  17  -2   2 2283.49 983.141   4
 -17   2   2 1647.71 1091.02   2
 -17  -2  -2 2276.24 761.196   2
 -17   2   2 2844.71 1099.70   6
  17   2  -2 1337.69 921.044   4
 -17   2   1 3010.75 1087.91   2
  17   2  -1 2034.47 1149.82   7
  17  -2   1 1999.32 1008.50   4
 -17   2   1 2683.82 1302.88   6
  17   2  -1 3783.38 1337.53   4
 -17  -2  -1 2858.99 1014.79   2
  17  -2   0 30427.8 2461.13   4
  17   2   0 29333.7 2769.19   4
  17  -2   0 32610.9 1748.66   7
 -17  -2   0 32513.6 2681.86   2
 -17   2   0 30072.9 2980.66   6
  17   2   0 29812.3 2045.15   5
  17   2   1 2760.42 815.519   5
 -17  -2   1 2064.13 1072.88   2
  17  -2  -1 1571.41 619.884   7
  17   2   1 2726.69 903.859   2
  17  -2  -1 2152.59 1004.85   4
  17   2   1 1949.91 1180.92   4
 -17   2  -1 1252.53 927.602   6
 -17   2  -2 2136.60 1496.96   3
 -17  -2   2 2040.47 1106.67   2
  17  -2  -2 2348.50 751.235   7
  17   2   2 2177.97 817.795   2
  17   2   2 2519.66 1007.45   4
 -17   2  -2 1641.20 951.301   6
  17  -2  -2 2231.81 876.730   4
 -17  -2   3 6639.47 1692.09   2
 -17   2  -3 5243.21 1828.89   3
  17  -2  -3 6194.04 1238.91   5
  17  -2  -3 6998.11 1392.45   7
  17   2   3 5287.91 1538.27   4
 -17   2  -3 6163.11 1482.27   6
  17  -2  -3 6856.97 1261.33   4
 -17  -2   4 4514.26 1416.99   2
  17  -2  -4 1939.78 866.429   5
 -17   2  -4 1909.62 1565.58   3
  17  -2  -4 3906.76 1293.81   7
  17   2   4 3891.13 1297.30   4
 -17   2  -4 5592.15 1256.07   6
 -17  -2   5 486.120 1004.29   2
  17  -2  -5 3212.40 972.349   5
 -17   2  -5 2992.65 1763.65   3
  17  -2  -5 937.960 1231.68   7
 -17   2  -5 1436.70 823.002   6
  17   2   5 2267.55 1271.88   4
 -17  -3  -5 976.976 1760.77   3
  17   3  -5 6310.55 1598.44   7
  17  -3   5 3566.71 1553.21   4
 -17   3   5 1628.96 950.768   6
 -17  -3  -4 55.2031 1224.20   3
  17   3  -4-2086.78 1337.55   7
  17  -3   4 259.142 1050.66   4
 -17   3   4-1004.82 931.871   6
 -17  -3  -3 303.661 1253.04   3
  17   3  -3 695.684 849.035   7
  17  -3   3 1496.17 1025.20   4
 -17  -3  -3 176.995 392.062   2
 -17   3   3 2728.79 964.630   6
 -17  -3  -3-5.42853 616.291   6
  17  -3   2 11129.4 970.972   7
 -17  -3  -2 8972.38 1304.47   2
 -17   3   2 9006.81 1461.98   4
  17   3  -2 11245.2 1836.62   7
  17  -3   2 9957.29 1765.19   4
 -17   3   2 9550.12 1943.11   6
  17   3  -2 10099.6 2100.58   4
 -17  -3  -1 7215.72 1298.62   2
  17  -3   1 8792.75 652.699   7
  17  -3   1 7737.33 601.932   7
 -17   3   1 9192.27 1394.01   4
  17  -3   1 10675.2 1660.41   4
 -17   3   1 7744.49 1795.40   6
  17   3  -1 9199.85 885.049   5
  17   3  -1 8939.37 1811.62   4
  17   3   0 5982.99 973.283   5
 -17  -3   0 7828.28 1464.31   2
  17  -3   0 5764.99 636.963   7
  17  -3   0 6324.36 1241.37   4
 -17   3   0 4758.12 1395.44   6
  17   3   0 5731.93 1506.47   4
  17   3   1 8433.28 1309.18   5
 -17  -3   1 7213.78 1668.66   2
  17  -3  -1 8201.17 990.886   7
  17  -3  -1 6778.10 1274.68   4
 -17   3  -1 9693.35 1900.77   6
  17   3   1 7893.36 1654.38   4
 -17   3  -2 8534.16 2261.60   3
 -17  -3   2 9988.64 1902.93   2
  17  -3  -2 11613.0 1471.04   4
  17  -3  -2 11546.3 1456.77   7
 -17   3  -2 9269.88 1902.10   6
  17   3   2 9653.03 1814.78   4
 -17  -3   3 302.131 661.475   2
 -17   3  -3 1418.81 1234.72   3
  17  -3  -3 363.127 708.012   5
  17  -3  -3-1338.86 870.637   7
 -17   3  -3 234.522 445.337   6
  17   3   3-1554.79 1188.76   4
  17  -3  -3 214.839 585.723   4
 -17  -3   4-657.328 988.237   2
  17  -3  -4 2360.39 800.793   5
 -17   3  -4 1375.44 949.303   3
  17  -3  -4 2594.97 905.402   7
 -17   3  -4-175.144 1034.39   6
  17   3   4 567.468 975.052   4
 -17  -3   5 993.217 1006.97   2
  17  -3  -5 2747.70 1049.84   5
 -17   3  -5 1585.19 1999.29   3
  17  -3  -5 1747.86 989.690   7
  17   3   5 1620.07 925.747   4
 -17  -4  -4 4798.66 1913.12   3
  17   4  -4 2485.07 1227.83   7
  17  -4   4 2784.85 1272.89   4
 -17   4   4 2661.41 1129.96   6
 -17  -4  -3 471.190 1234.82   3
  17   4  -3 3026.50 910.173   7
  17  -4   3-159.949 1118.01   4
 -17   4   3 74.6661 452.430   6
 -17  -4  -2 831.699 609.694   2
 -17   4   2 995.131 555.573   4
  17   4  -2 539.992 782.802   7
  17  -4   2 541.699 949.991   4
 -17   4   2 1040.71 1036.38   6
 -17   4   1 16361.3 1971.39   4
  17  -4   1 16005.9 2033.75   4
 -17  -4  -1 17352.5 1987.84   2
 -17   4   1 15369.7 2338.40   6
  17   4  -1 16283.9 2383.70   4
  17   4   0 910.392 517.347   5
 -17  -4   0 2962.56 965.628   2
  17  -4   0 1609.28 880.704   4
 -17   4   0 623.997 1233.35   6
  17   4   0 3116.44 1434.71   4
 -17   4  -1 16698.1 2687.04   3
  17  -4  -1 17675.9 1777.06   4
 -17  -4   1 21173.8 2537.36   2
 -17   4  -1 16787.4 2401.17   6
  17   4   1 16694.3 2366.65   4
  17   4   1 14685.3 1690.56   5
 -17   4  -2-402.742 1186.63   3
 -17  -4   2 995.847 725.616   2
  17  -4  -2 142.022 304.933   7
 -17   4  -2 687.456 793.195   6
  17  -4  -2 1658.81 583.842   4
  17   4   2 1141.55 826.311   4
  17  -4  -3-1387.94 654.906   5
 -17   4  -3-1467.54 1314.32   3
 -17  -4   3-821.923 819.493   2
  17  -4  -3-365.593 622.912   7
 -17   4  -3-1347.02 865.038   6
  17   4   3 316.117 698.574   4
  17  -4  -4 1477.51 882.575   5
 -17  -4   4 2907.69 1438.73   2
 -17   4  -4 5110.46 1888.18   3
  17  -4  -4 2750.21 851.929   7
 -17   4  -4 1858.56 1178.29   6
  17   4   4 1718.42 1250.96   4
 -17  -5  -4-1891.43 1821.30   3
  17   5  -4-1246.60 1097.09   7
  17  -5   4-3090.18 1580.69   4
 -17   5   4-1570.24 1273.64   6
 -17  -5  -3 2245.18 1724.80   3
  17  -5   3 3378.40 1363.77   4
  17   5  -3 3749.75 1462.41   7
 -17   5   3 4602.17 1339.75   6
 -17  -5  -2 4275.58 994.182   2
  17  -5   2 2573.13 1190.11   4
  17   5  -2 4924.40 1427.84   7
 -17   5   2 4430.17 1404.80   6
 -17  -5  -1 3142.96 1061.11   2
  17  -5   1 2177.37 1025.02   4
 -17   5   1 2994.60 1573.87   6
  17   5  -1 3971.88 1502.41   4
 -17  -5   0 782.826 897.398   2
  17  -5   0 66.2482 482.023   4
 -17   5   0 379.506 1100.37   6
  17   5   0 1282.19 1258.64   4
 -17   5  -1 2597.23 1266.88   3
 -17  -5   1 3155.24 1215.61   2
  17  -5  -1 3111.07 995.508   4
 -17   5  -1 2116.89 1328.63   6
  17   5   1 3329.75 1344.37   4
 -17   5  -2 8458.41 1963.26   3
 -17  -5   2 6458.87 1802.97   2
 -17   5  -2 7199.19 1673.32   6
  17  -5  -2 4873.01 997.325   4
  17   5   2 4869.05 1432.75   4
  17  -5  -3 2807.37 1230.31   5
 -17   5  -3 497.275 1556.20   3
 -17  -5   3 1991.57 1365.39   2
 -17   5  -3 3802.07 1447.29   6
  17   5   3 3153.16 1507.02   4
  17  -5  -4 82.6347 1280.45   5
 -17  -5   4-2307.88 1530.04   2
 -17   5  -4-2993.13 1638.38   3
 -17   5  -4 3301.47 1248.04   6
  17   5   4 610.612 980.410   4
 -17  -6  -3 4003.05 1307.78   3
  17  -6   3 1060.44 1051.87   4
  17   6  -3 2027.14 1450.75   7
 -17   6   3 497.542 1281.54   6
 -17  -6  -2 1996.23 690.553   2
  17  -6   2-105.671 697.255   4
  17   6  -2 324.538 1082.90   7
 -17   6   2 1622.70 942.491   6
 -17  -6  -1 734.235 879.672   2
  17  -6   1 2141.00 1058.18   4
 -17   6   1 101.060 1235.62   6
 -17   6   0 4606.71 1413.95   3
 -17  -6   0 4912.25 1597.58   2
  17  -6   0 6954.97 1384.33   4
 -17   6   0 3792.77 1364.59   6
  17   6   0 4163.72 1978.24   4
 -17   6  -1 1683.79 1337.73   3
 -17  -6   1 435.231 1247.00   2
  17  -6  -1 280.215 732.875   4
 -17   6  -1-325.351 1245.15   6
  17   6   1 1243.42 1317.73   4
 -17   6  -2 1270.27 1302.52   3
 -17  -6   2 1828.94 838.517   2
 -17   6  -2 2649.60 1454.08   6
  17   6   2 750.665 1084.00   4
  17  -6  -3 483.613 1007.07   5
 -17   6  -3 1992.72 1287.14   3
 -17  -6   3 2419.21 1286.15   2
 -17   6  -3 1973.39 1283.17   6
  17   6   3 784.342 1017.83   4
 -17  -7  -1 74.0415 1399.06   2
  17  -7   1-58.6548 998.899   4
 -17   7   1-1393.63 738.324   6
 -17  -7   0 1294.62 639.344   2
  17  -7   0 909.272 659.825   4
 -17  -7   1 3205.15 1161.25   2
 -17   7  -1 919.671 1039.90   6
  17   7   1 445.306 1192.91   4
  18   0   0 93737.4 4506.03   4
 -18   0   0 90164.8 4338.14   2
  18   0  -1 3991.94 968.489   7
 -18   0  -1 5518.54 1192.25   2
  18   0   1 5324.24 1296.25   4
  18   0  -1 4016.63 1237.68   4
 -18   0  -1 4568.07 1252.92   6
 -18   0   1 4395.99 1224.08   2
  18   0   2 1241.80 746.719   2
  18   0  -2 1004.34 701.152   7
  18   0   2-184.407 1024.18   4
 -18   0  -2 2526.93 960.957   6
  18   0  -2 1532.34 867.395   4
 -18   0   2 1575.85 1092.30   2
 -18   0  -3 61.8643 1405.61   3
  18   0  -3 940.990 556.068   5
  18   0   3-127.176 787.538   2
  18   0  -3 1331.61 918.254   7
  18   0   3 742.471 900.629   4
 -18   0  -3 782.043 792.383   6
 -18   0   3 2450.87 1009.11   2
  18   0  -3-302.121 621.184   4
  18   0  -4 772.113 578.328   5
 -18   0  -4-376.994 1926.62   3
  18   0  -4-70.6537 1034.44   7
  18   0   4-13.3624 1116.29   4
 -18   0  -4 367.269 536.217   6
 -18   0   4-199.278 783.274   2
 -18   0  -5 600.157 1164.94   3
  18   0  -5-1003.49 1243.89   7
  18   0   5 145.004 931.838   4
 -18   0   5 3268.43 1060.73   2
 -18  -1  -5 1174.27 1744.83   3
  18   1  -5 3963.77 1276.90   7
  18  -1   5 171.509 1267.14   4
 -18   1   5 1227.92 989.752   2
  18   1  -4 4353.02 840.310   5
 -18  -1  -4 1928.80 1771.91   3
  18   1  -4 4671.37 1301.74   7
  18  -1   4 4339.51 1439.12   4
 -18  -1  -4 4310.28 995.446   6
 -18   1   4 2314.35 1215.45   2
  18  -1   3 6399.26 1289.95   2
 -18  -1  -3 5040.51 1804.49   3
  18   1  -3 5752.90 939.531   5
  18  -1   3 3505.64 989.322   7
  18   1  -3 5152.81 1498.95   7
  18  -1   3 7052.55 1522.71   4
 -18  -1  -3 5918.01 1318.33   6
 -18   1   3 3754.28 1232.14   2
  18   1  -3 6185.73 1670.77   4
 -18  -1  -2 991.725 657.497   2
  18   1  -2 1087.90 817.570   7
  18  -1   2 2239.20 922.838   4
 -18   1   2 1738.20 1065.81   2
 -18  -1  -2 892.413 814.022   6
  18   1  -2 1344.45 933.657   4
  18  -1   1 12105.8 1788.13   4
  18   1  -1 15963.2 2067.32   4
 -18  -1  -1 13791.6 1736.21   2
  18   1  -1 12070.7 1713.42   7
 -18   1   1 13341.8 1964.52   2
 -18   1   1 13033.6 2161.66   6
  18  -1   0 12222.5 1769.24   4
  18  -1   0 13396.0 1432.62   7
 -18  -1   0 13713.4 1868.03   2
 -18   1   0 13420.6 1889.37   2
  18   1   0 12183.5 1859.95   4
 -18   1   0 12697.5 2032.14   6
  18  -1  -1 13368.6 1820.15   4
  18  -1  -1 12470.9 1446.83   7
  18   1   1 11553.4 1787.64   4
 -18   1  -1 15076.6 2275.09   6
 -18  -1   1 12114.6 1920.38   2
  18   1   2 877.946 626.466   2
  18  -1  -2 1641.71 810.201   7
  18   1   2 801.181 937.154   4
 -18   1  -2 1600.36 830.469   6
  18  -1  -2 2119.72 904.321   4
 -18  -1   2 2140.20 914.963   2
 -18   1  -3 5713.39 1911.64   3
  18  -1  -3 5549.70 1104.44   5
  18  -1  -3 6079.72 1296.49   7
  18   1   3 4706.02 1386.10   4
 -18   1  -3 6207.63 1416.36   6
  18  -1  -3 3851.83 1146.26   4
 -18  -1   3 6666.54 1691.98   2
  18  -1  -4 4087.83 1011.74   5
 -18   1  -4 4235.01 1959.10   3
  18  -1  -4 2069.61 1065.56   7
  18   1   4 3637.53 1348.61   4
 -18   1  -4 2638.58 1048.47   6
 -18  -1   4 3680.20 1269.97   2
  18  -1  -5-114.493 979.315   5
 -18   1  -5 2069.46 1941.43   3
  18  -1  -5 857.196 1199.58   7
  18   1   5 756.099 862.276   4
 -18  -1   5 738.199 801.104   2
 -18  -2  -5-570.578 1381.10   3
  18   2  -5-2164.73 1180.06   7
  18  -2   5-745.267 1535.74   4
 -18   2   5-9.75830 389.694   2
 -18   2   5-2187.26 1240.09   6
 -18  -2  -4 800.111 1572.82   3
  18   2  -4-1140.61 480.613   7
  18  -2   4-374.881 1113.76   4
 -18   2   4-412.928 634.751   2
 -18   2   4 442.797 1009.83   6
 -18  -2  -3 11143.5 2489.60   3
  18   2  -3 7943.45 1554.12   7
 -18   2   3 6721.64 1179.92   4
  18  -2   3 11230.0 1877.80   4
 -18  -2  -3 11304.2 1613.56   6
 -18   2   3 9069.19 1650.59   2
 -18   2   3 10744.9 1916.15   6
  18   2  -3 9058.35 938.243   5
  18   2  -2 4300.48 638.721   5
  18   2  -2 3617.19 1177.20   7
  18  -2   2 2020.98 931.345   4
 -18   2   2 3645.12 1260.39   2
 -18  -2  -2 2081.21 730.358   2
 -18   2   2 2887.36 1249.75   6
  18   2  -2 2820.02 1317.18   4
  18   2  -1 324.690 864.074   7
  18  -2   1 1355.44 793.305   4
 -18   2   1 2236.91 1104.18   6
  18   2  -1 1232.10 1102.70   4
 -18  -2  -1-246.759 830.521   2
  18  -2   0 8948.82 998.718   7
  18  -2   0 9234.24 1448.65   4
 -18   2   0 8010.27 1730.56   6
  18   2   0 8609.41 1706.69   4
 -18  -2   0 11297.4 1754.94   2
  18   2   0 7626.91 1185.61   5
  18   2   1 242.480 522.139   5
 -18  -2   1 1144.70 954.342   2
  18  -2  -1 240.806 569.358   7
  18  -2  -1 802.489 716.413   4
  18   2   1-18.2880 1069.41   4
 -18   2  -1 218.769 880.061   6
 -18  -2   2 3019.48 1219.97   2
 -18   2  -2 2539.52 1388.28   3
  18  -2  -2 3228.53 980.577   7
  18   2   2 3027.38 1042.13   2
  18   2   2 2840.87 1207.68   4
 -18   2  -2 4154.55 1288.71   6
  18  -2  -2 3419.47 1029.79   4
 -18  -2   3 10640.7 2061.39   2
 -18   2  -3 7935.34 2315.57   3
  18  -2  -3 10577.8 1612.82   5
  18  -2  -3 13758.7 1776.72   4
  18  -2  -3 9013.14 1576.86   7
  18   2   3 11081.9 2042.02   4
 -18   2  -3 11079.0 1901.71   6
 -18  -2   4 381.249 701.500   2
  18  -2  -4-659.863 829.385   5
 -18   2  -4-2898.67 1943.22   3
  18  -2  -4-1522.43 957.837   7
  18   2   4-1405.44 1121.39   4
 -18   2  -4-1197.83 864.973   6
 -18  -2   5 1051.61 750.537   2
  18  -2  -5 1971.46 822.101   5
  18  -2  -5 906.085 1119.47   7
 -18   2  -5-705.826 450.792   6
  18   2   5-893.995 1292.11   4
 -18  -3  -5 4376.11 1526.44   3
  18   3  -5 311.350 650.210   7
  18  -3   5 3102.23 1454.52   4
 -18   3   5 3841.99 1259.71   6
 -18  -3  -4 2712.47 1480.95   3
  18   3  -4 4254.30 1337.45   7
  18  -3   4 3444.98 1473.43   4
 -18   3   4 2891.08 1217.43   6
 -18  -3  -3 1549.65 1257.71   3
 -18  -3  -3 1048.27 498.732   2
  18   3  -3 1553.25 850.915   7
  18  -3   3 515.972 941.054   4
 -18   3   3 75.7600 930.279   6
 -18  -3  -3 1924.10 733.920   6
 -18   3   2 3958.47 1151.87   4
  18   3  -2 5406.07 1420.64   7
  18  -3   2 6184.78 1390.77   4
 -18   3   2 6471.97 1637.33   6
 -18  -3  -2 6869.60 1146.52   2
  18   3  -2 5360.70 1560.55   4
  18  -3   1 14315.6 2004.33   4
  18  -3   1 12483.6 821.494   7
  18  -3   1 13507.8 839.737   7
  18   3  -1 13555.8 1927.03   7
 -18  -3  -1 11668.0 1709.44   2
 -18   3   1 10344.0 2101.46   6
  18   3  -1 12336.4 2188.78   4
  18   3   0 5069.96 920.755   5
 -18  -3   0 3149.14 1065.14   2
  18  -3   0 3016.11 516.872   7
  18  -3   0 3244.35 1075.34   4
 -18   3   0 2932.36 1142.03   6
  18   3   0 3782.05 1290.40   4
 -18  -3   1 11674.0 1948.43   2
  18  -3  -1 13687.4 1710.64   4
  18  -3  -1 12229.6 1214.74   7
 -18   3  -1 13401.0 2172.19   6
  18   3   1 11493.1 2030.85   4
  18   3   1 13882.6 1741.93   5
 -18   3  -2 5189.04 1611.24   3
 -18  -3   2 7771.31 1739.26   2
  18  -3  -2 4239.15 1058.09   7
 -18   3  -2 5236.37 1381.83   6
  18   3   2 6657.73 1482.16   4
  18  -3  -2 5581.47 1159.98   4
 -18  -3   3 199.151 1359.47   2
 -18   3  -3 851.043 1404.48   3
  18  -3  -3 950.012 812.404   5
  18  -3  -3 2814.40 1026.28   7
 -18   3  -3 1585.57 897.978   6
  18   3   3 1824.04 1234.44   4
  18  -3  -3 1048.14 746.485   4
 -18  -3   4 2714.27 1022.21   2
  18  -3  -4 3181.93 1240.35   5
 -18   3  -4 2377.46 2037.35   3
  18  -3  -4 1937.15 982.896   7
 -18   3  -4 2632.29 1261.00   6
  18   3   4 1953.47 991.184   4
 -18  -3   5-1877.74 1456.53   2
  18  -3  -5 1288.82 1099.31   5
 -18   3  -5 1107.42 1579.15   3
  18  -3  -5 661.743 879.750   7
 -18   3  -5-978.674 783.553   6
  18   3   5 913.815 1314.04   4
  18   4  -4 1510.56 1001.75   7
  18  -4   4-53.8327 1160.10   4
 -18   4   4 349.940 1018.48   6
 -18  -4  -3 1703.41 1302.10   3
  18   4  -3 503.820 684.611   7
  18  -4   3-297.455 904.119   4
 -18   4   3-389.868 932.313   6
  18   4  -2 3707.84 1150.75   7
  18  -4   2 2271.81 1141.30   4
 -18   4   2 3661.23 1277.10   6
 -18  -4  -2 2763.93 804.828   2
 -18  -4  -1 2327.47 940.933   2
  18  -4   1 2552.48 1108.40   4
 -18   4   1 2842.67 1242.14   6
  18   4  -1 1326.66 1375.53   4
 -18  -4   0 13605.8 2056.14   2
  18  -4   0 12810.0 1757.24   4
 -18   4   0 13114.8 2271.36   6
  18   4   0 14289.4 2320.38   4
 -18   4  -1 2656.91 1524.62   3
 -18  -4   1 2349.75 1179.14   2
  18  -4  -1 2352.29 954.393   4
 -18   4  -1 2541.51 1305.11   6
  18   4   1 2951.21 1364.49   4
 -18   4  -2 330.523 1070.28   3
 -18  -4   2 1083.08 1108.07   2
  18  -4  -2 1863.97 614.250   7
 -18   4  -2 1266.99 1052.36   6
  18  -4  -2 2626.64 801.768   4
  18   4   2 3874.30 1315.56   4
 -18  -4   3 109.959 984.554   2
 -18   4  -3 2146.24 1226.68   3
  18  -4  -3-418.837 671.627   5
  18  -4  -3 140.359 427.999   7
 -18   4  -3 585.937 762.694   6
  18   4   3-397.482 1212.99   4
  18  -4  -4-18.9074 830.772   5
 -18  -4   4 301.368 1129.17   2
 -18   4  -4-1313.02 1360.24   3
  18  -4  -4 3617.19 904.770   7
 -18   4  -4 454.999 729.541   6
  18   4   4 220.093 936.852   4
 -18  -5  -3 1675.88 1534.88   3
  18   5  -3-38.6585 1465.19   7
  18  -5   3 1295.87 1052.91   4
 -18   5   3 868.559 1334.14   6
 -18  -5  -2 7962.66 1330.69   2
  18   5  -2 6803.35 1827.31   7
  18  -5   2 7297.42 1739.30   4
 -18   5   2 9543.92 2121.34   6
 -18  -5  -1 1561.72 793.719   2
  18  -5   1 2226.16 1041.55   4
 -18   5   1 1508.78 1064.05   6
  18   5  -1 1008.11 1463.72   4
 -18  -5   0 1521.90 1030.58   2
  18  -5   0 2589.98 1051.93   4
 -18   5   0 2547.92 1022.84   6
  18   5   0 3565.05 1446.49   4
 -18   5  -1 963.204 1186.79   3
 -18  -5   1 2802.14 1327.16   2
  18  -5  -1 3764.20 968.458   4
 -18   5  -1 1201.07 1118.28   6
  18   5   1 2977.16 1479.50   4
 -18   5  -2 6520.56 2000.80   3
 -18  -5   2 6515.43 1873.63   2
 -18   5  -2 13100.8 2396.07   6
  18   5   2 11761.2 2168.99   4
  18  -5  -3 2476.50 1140.05   5
 -18   5  -3 1578.66 1678.90   3
 -18  -5   3 1664.10 1012.98   2
 -18   5  -3 863.119 805.283   6
  18   5   3 2132.53 1282.69   4
 -18  -6  -3 4267.72 1841.72   3
  18  -6   3 3771.49 1469.08   4
  18   6  -3 3881.18 1372.77   7
 -18   6   3 1503.36 1542.70   6
  18  -6   2 316.019 1013.70   4
  18   6  -2-43.1176 1109.43   7
 -18   6   2 311.522 951.215   6
 -18  -6  -1 1624.50 982.460   2
  18  -6   1 3593.16 1230.67   4
 -18   6   1 827.199 1061.38   6
 -18   6   0 2645.25 1094.86   3
 -18  -6   0 1396.46 950.497   2
  18  -6   0 256.539 530.031   4
 -18   6   0-1867.99 1202.85   6
  18   6   0-565.468 1511.40   4
 -18   6  -1 1045.29 1264.22   3
 -18  -6   1 959.488 1464.89   2
 -18   6  -1 5410.44 1462.13   6
  18   6   1 4436.68 1458.02   4
 -18   6  -2 198.670 999.496   3
 -18  -6   2-2052.83 1627.27   2
 -18   6  -2-917.164 1083.75   6
  18   6   2 1438.34 1397.54   4
  18  -6  -3 2973.57 1317.45   5
 -18  -6   3 3665.43 1403.37   2
 -18   6  -3 2436.17 1414.41   6
  18   6   3 1792.43 1422.90   4
 -18  -7  -1-823.726 879.057   2
  18  -7   1-930.346 1264.72   4
  18   7  -1 1548.75 1165.51   7
 -18   7   1 1545.94 788.547   6
 -18  -7   0-15.3980 854.667   2
 -18   7   0 471.072 947.023   6
 -18  -7   1-51.9625 1133.79   2
 -18   7  -1-3310.67 1435.61   6
  18   7   1-1819.06 1655.86   4
  19   0   0 483.358 844.078   4
 -19   0   0 1125.32 1075.85   2
  19   0  -1 822.933 688.301   7
 -19   0  -1 905.340 834.777   2
  19   0   1 817.225 973.376   4
  19   0  -1 1074.29 767.381   4
 -19   0   1 2675.91 1175.64   2
 -19   0  -1 1577.71 944.657   6
  19   0  -2 9092.97 1527.92   7
  19   0   2 10418.5 1844.12   4
 -19   0  -2 10788.1 1776.93   6
 -19   0   2 7948.58 1774.37   2
  19   0  -2 11000.8 1804.57   4
 -19   0  -3 6466.21 2368.75   3
  19   0  -3 8677.66 1310.87   5
  19   0  -3 7112.27 1493.21   7
  19   0   3 8345.56 1752.53   4
 -19   0  -3 7611.20 1648.59   6
 -19   0   3 9164.98 1704.74   2
  19   0  -3 10079.1 1809.22   4
  19   0  -4 3889.22 1010.41   5
 -19   0  -4 4242.00 2180.59   3
  19   0  -4 5324.11 1466.84   7
  19   0   4 4080.39 1499.49   4
 -19   0  -4 3972.78 1056.84   6
 -19   0   4 7714.96 1810.72   2
 -19   0  -5-2670.39 2165.77   3
  19   0  -5 2450.38 1004.19   7
  19   0   5-365.819 1067.42   4
 -19   0   5-2601.53 976.346   2
 -19  -1  -5 2741.22 1423.50   3
  19   1  -5 1274.70 1198.63   7
 -19   1   5 218.340 649.776   2
 -19  -1  -4 3239.45 2104.89   3
  19   1  -4 2529.39 965.450   7
  19  -1   4 2147.40 1337.73   4
 -19  -1  -4 1727.72 705.716   6
 -19   1   4 1015.04 1021.32   2
 -19  -1  -3 2128.98 1488.45   3
  19   1  -3 1363.62 541.579   5
  19   1  -3 813.507 1106.55   7
  19  -1   3 1392.29 977.795   4
 -19  -1  -3 1977.69 879.049   6
 -19   1   3 1122.07 881.096   2
  19   1  -3 491.946 1072.63   4
  19   1  -2 8417.92 1558.65   7
  19  -1   2 11160.5 1817.67   4
 -19   1   2 9619.43 1811.88   2
 -19  -1  -2 8812.90 1606.10   6
  19   1  -2 11038.8 1914.02   4
  19  -1   1 33401.7 2941.32   4
 -19   1   1 33841.5 2957.08   2
  19   1  -1 34298.6 3058.64   4
 -19  -1  -1 34224.2 2653.62   2
  19   1  -1 30089.4 2652.50   7
 -19   1   1 34499.7 3418.68   6
  19  -1   0 26759.1 2596.92   4
 -19   1   0 25164.9 2515.59   2
  19   1   0 23588.2 2605.10   4
 -19  -1   0 27772.5 2600.05   2
  19  -1   0 25377.1 2011.39   7
 -19   1   0 27557.6 2992.92   6
  19   1   1 27425.6 2727.95   4
  19  -1  -1 32323.8 2734.93   4
  19  -1  -1 30906.7 2243.36   7
 -19  -1   1 34543.4 3104.31   2
 -19   1  -1 31301.3 3127.65   6
  19   1   2 8356.14 1519.84   2
  19  -1  -2 9754.27 1492.88   7
  19   1   2 10883.3 1839.04   4
 -19   1  -2 10349.9 1837.97   6
  19  -1  -2 8986.31 1512.70   4
 -19  -1   2 10373.0 1877.92   2
 -19   1  -3 4829.03 1508.72   3
  19  -1  -3 362.667 738.874   5
  19  -1  -3 1793.79 753.879   7
  19   1   3 2265.22 1265.52   4
 -19   1  -3 2251.31 937.676   6
  19  -1  -3 1670.52 698.362   4
 -19  -1   3 1159.51 1050.55   2
  19  -1  -4 1847.48 912.450   5
 -19   1  -4 3717.26 1830.25   3
  19  -1  -4 2880.12 1147.56   7
  19   1   4 2147.76 1439.67   4
 -19   1  -4 2779.44 980.379   6
 -19  -1   4 1534.96 1344.63   2
  19  -1  -5-1183.15 933.894   5
 -19   1  -5-1565.75 1591.25   3
  19  -1  -5-1387.27 783.995   7
  19   1   5 362.039 1140.17   4
 -19  -1   5 33.7984 822.382   2
 -19  -2  -5 747.349 1715.77   3
  19   2  -5 2446.59 969.470   7
  19  -2   5 2482.86 1488.81   4
 -19   2   5 954.543 799.664   2
 -19   2   5 1694.33 1102.33   6
 -19  -2  -4 1888.49 2100.04   3
  19   2  -4 1273.32 839.213   7
  19  -2   4 2708.61 1241.27   4
 -19   2   4 3891.63 1109.09   2
 -19   2   4 1742.18 1069.13   6
 -19  -2  -3 6735.88 1882.95   3
  19   2  -3 2688.10 1174.90   7
  19  -2   3 2932.75 1336.02   4
 -19   2   3 3740.71 1212.58   2
 -19  -2  -3 4818.51 1163.44   6
 -19   2   3 3375.21 1233.60   6
  19  -2   2 14241.9 2132.32   4
 -19  -2  -2 12874.2 1544.01   2
  19   2  -2 12764.3 1867.36   7
 -19   2   2 13050.0 2196.34   2
 -19   2   2 13345.9 2316.03   6
  19   2  -2 13231.9 2163.47   4
  19  -2   1 7287.39 961.003   7
  19   2  -1 8171.84 1558.59   7
  19  -2   1 8161.32 1576.54   4
 -19   2   1 8036.98 1766.37   6
  19   2  -1 7445.42 1103.91   5
 -19  -2  -1 7702.69 1374.65   2
  19   2  -1 5896.04 1572.43   4
  19   2   0 9292.41 1351.37   5
  19  -2   0 12448.4 1732.84   4
  19  -2   0 10843.3 1130.64   7
 -19   2   0 9813.42 1842.12   6
  19   2   0 11040.0 1880.36   4
 -19  -2   0 9583.14 1671.79   2
 -19  -2   1 7598.81 1640.87   2
  19  -2  -1 6640.20 1141.04   7
  19  -2  -1 6255.13 1331.22   4
  19   2   1 8048.63 1604.90   4
 -19   2  -1 7855.77 1669.84   6
 -19  -2   2 9479.01 1896.43   2
 -19   2  -2 13035.7 2654.33   3
  19  -2  -2 12416.9 1743.60   4
  19  -2  -2 10236.2 1532.92   7
  19   2   2 9963.42 1659.16   2
  19   2   2 11337.6 2079.67   4
 -19   2  -2 13482.4 2178.61   6
 -19  -2   3 5625.50 1650.81   2
 -19   2  -3 4321.35 1751.03   3
  19  -2  -3 5115.67 1214.29   5
  19  -2  -3 4374.65 1073.43   7
  19   2   3 5662.06 1635.61   4
 -19   2  -3 2419.59 1243.69   6
  19  -2  -3 5423.15 1266.16   4
 -19  -2   4 3061.74 1122.58   2
  19  -2  -4 1720.09 957.528   5
 -19   2  -4 4098.08 1416.96   3
  19  -2  -4 5476.30 1342.63   7
  19   2   4 4003.57 1533.17   4
 -19   2  -4 1542.80 1029.49   6
 -19  -2   5 2003.22 1073.82   2
  19  -2  -5 1322.70 775.780   5
 -19   2  -5 3993.26 2098.95   3
  19  -2  -5-346.715 876.846   7
  19   2   5-1317.38 1430.20   4
  19   3  -4 376.298 788.340   7
  19  -3   4 927.915 965.695   4
 -19   3   4 1545.55 813.714   6
 -19  -3  -3 552.069 1431.97   3
  19   3  -3 1497.76 928.657   7
  19  -3   3 3580.46 1055.18   4
 -19   3   3 916.352 997.516   6
 -19  -3  -3 2063.88 724.746   6
  19   3  -2 389.831 905.762   7
  19  -3   2 525.665 770.600   4
 -19   3   2 2098.28 1354.17   6
 -19  -3  -2 680.469 600.300   2
  19   3  -2-335.901 1259.46   4
  19  -3   1 8172.53 707.273   7
  19   3  -1 5017.98 1362.41   7
  19  -3   1 9557.45 1684.59   4
 -19   3   1 10001.7 2093.40   6
  19   3  -1 7424.99 1818.34   4
 -19  -3  -1 6869.64 1398.62   2
 -19  -3   0 5977.34 1539.35   2
  19  -3   0 6601.80 742.239   7
  19  -3   0 5742.06 1391.09   4
 -19   3   0 7841.80 1694.18   6
  19   3   0 7456.53 1622.01   4
  19   3   1 6984.26 1324.90   5
 -19  -3   1 8171.83 1679.38   2
  19  -3  -1 6202.57 914.235   7
  19  -3  -1 6731.80 1314.72   4
 -19   3  -1 6213.96 1632.52   6
  19   3   1 8792.96 1831.90   4
 -19  -3   2 31.9600 679.092   2
 -19   3  -2-463.202 1044.98   3
  19  -3  -2 1754.81 601.740   7
 -19   3  -2 2674.58 900.685   6
  19   3   2-127.285 1103.57   4
  19  -3  -2 83.5712 738.173   4
 -19  -3   3 832.635 642.193   2
 -19   3  -3 656.174 1353.83   3
  19  -3  -3 499.522 750.263   5
  19  -3  -3 133.457 615.245   7
 -19   3  -3 1191.35 1028.64   6
  19   3   3 1416.73 1235.37   4
  19  -3  -3 1577.19 719.402   4
 -19  -3   4 1544.69 934.434   2
  19  -3  -4-835.956 707.327   5
 -19   3  -4-1055.90 1522.46   3
  19  -3  -4-148.181 306.681   7
 -19   3  -4-343.365 848.622   6
  19   3   4 212.455 1059.71   4
 -19  -4  -4 534.427 1728.08   3
  19   4  -4 4441.48 1717.42   7
  19  -4   4 2281.19 1586.78   4
 -19   4   4 2089.82 1426.86   6
 -19  -4  -3 4384.29 2157.56   3
  19   4  -3 6080.58 1500.71   7
  19  -4   3 5950.41 1772.53   4
 -19   4   3 8807.79 1846.78   6
  19   4  -2 2981.18 1137.10   7
  19  -4   2 1667.80 929.897   4
 -19   4   2 2260.56 996.024   6
 -19  -4  -2 1537.76 745.558   2
 -19  -4  -1 1060.88 817.620   2
  19  -4   1 2475.89 829.033   4
 -19   4   1 871.007 909.298   6
  19   4  -1 339.306 1158.28   4
 -19  -4   0 775.995 761.595   2
  19  -4   0 174.704 837.658   4
 -19   4   0 557.160 848.200   6
  19   4   0-348.251 1344.94   4
 -19   4  -1 945.427 963.050   3
 -19  -4   1 3152.85 1020.88   2
  19  -4  -1 1231.07 858.117   4
 -19   4  -1 1128.21 999.857   6
  19   4   1 676.380 1229.94   4
 -19   4  -2 38.1906 877.399   3
 -19  -4   2 2218.90 1169.78   2
 -19   4  -2 3674.15 1253.24   6
  19  -4  -2 1816.09 702.004   4
  19   4   2 3589.05 1351.40   4
 -19  -4   3 4037.28 1394.59   2
 -19   4  -3 6351.73 2198.43   3
  19  -4  -3 4287.65 1394.74   5
 -19   4  -3 3443.59 1561.87   6
  19   4   3 5819.23 1622.18   4
 -19  -4   4 1816.85 1431.82   2
  19  -4  -4 3811.98 1091.47   5
 -19   4  -4 2121.81 1447.78   3
 -19   4  -4 1882.63 1269.83   6
  19   4   4 3242.24 1550.55   4
  19   5  -3 3027.02 1134.20   7
  19  -5   3 250.079 838.100   4
 -19   5   3 591.689 991.174   6
 -19  -5  -2 1832.78 835.741   2
  19   5  -2 3973.08 1430.35   7
  19  -5   2 4194.47 1338.99   4
 -19   5   2 4980.56 1468.16   6
 -19  -5  -1 3323.18 1157.26   2
  19  -5   1 2626.10 1144.41   4
 -19   5   1 5935.13 1894.11   6
  19   5  -1 1742.55 1252.99   4
 -19  -5   0 6950.94 1691.14   2
  19  -5   0 6057.69 1422.56   4
  19   5   0 4190.30 1735.23   4
 -19   5  -1 3249.25 1538.47   3
 -19  -5   1 4788.74 1639.80   2
  19  -5  -1 3644.61 1011.81   4
 -19   5  -1 3541.71 1400.58   6
  19   5   1 2099.55 1449.26   4
 -19   5  -2 3233.98 1755.93   3
 -19  -5   2 4301.38 1637.49   2
 -19   5  -2 5096.52 1569.08   6
  19   5   2 6144.90 1585.29   4
  19  -5  -3 1609.97 907.149   5
 -19  -5   3 2135.56 1285.58   2
 -19   5  -3-1227.51 1583.54   3
 -19   5  -3 457.410 822.872   6
  19   5   3 782.432 893.022   4
  19  -6   2-1656.01 1307.71   4
 -19   6   2-614.471 1170.02   6
 -19  -6  -1-2264.82 1000.04   2
  19  -6   1 454.962 498.667   4
 -19   6   1-2978.44 1529.59   6
 -19   6   0 1031.22 1016.83   3
 -19  -6   0 865.988 697.789   2
  19  -6   0 2634.44 1051.08   4
 -19   6   0 2899.42 1364.14   6
  19   6   0-470.128 1353.99   4
 -19   6  -1-2006.53 1381.81   3
 -19  -6   1 532.335 1009.37   2
 -19   6  -1-2776.98 1372.20   6
  19   6   1 1134.39 990.830   4
 -19   6  -2-2423.99 2004.23   3
 -19  -6   2-2883.47 1733.62   2
 -19   6  -2-2533.43 1489.99   6
  19   6   2-2972.27 1798.51   4
  20   0   0 9071.80 1421.82   7
 -20   0   0 11614.6 1744.82   2
  20   0   0 9309.55 1664.04   4
 -20   0   0 8919.41 1801.87   6
 -20   0  -1 1288.86 781.621   2
  20   0  -1 1498.44 763.278   7
  20   0   1 1086.83 916.202   4
 -20   0   1-82.7173 849.088   2
  20   0  -1 534.422 767.047   4
 -20   0  -1-4.26969 579.545   6
  20   0  -2 5342.03 1304.91   7
  20   0   2 5624.40 1399.29   4
 -20   0  -2 5982.68 1301.15   6
 -20   0   2 5383.25 1504.00   2
  20   0  -2 7225.51 1534.45   4
 -20   0  -3-166.072 1179.98   3
  20   0  -3-286.830 572.430   5
  20   0  -3 1039.12 843.725   7
  20   0   3 1476.14 1203.65   4
 -20   0  -3 413.069 799.031   6
 -20   0   3 204.437 1017.46   2
  20   0  -3 868.026 851.378   4
  20   0  -4 3286.90 1055.73   5
 -20   0  -4 4907.27 2378.56   3
  20   0  -4 4618.99 1556.10   7
  20   0   4 3813.34 1342.40   4
 -20   0  -4 3297.29 1036.69   6
 -20   0   4 3196.75 1186.12   2
 -20   0  -5 2675.58 1899.28   3
  20   0  -5 1796.81 1039.91   7
  20   0   5 3442.12 1556.45   4
 -20   0   5 930.357 931.968   2
 -20  -1  -4 4058.72 2236.16   3
  20   1  -4 3374.30 1224.85   7
  20  -1   4 4221.01 1488.76   4
 -20   1   4 3595.58 1127.04   2
 -20  -1  -3 9669.39 2467.07   3
  20   1  -3 8352.96 1887.90   7
  20  -1   3 8762.25 1898.68   4
 -20  -1  -3 7724.26 1605.22   6
 -20   1   3 10205.4 1845.10   2
  20   1  -3 9077.41 1162.76   5
  20   1  -3 11526.2 2269.56   4
  20   1  -2 2628.97 967.735   7
  20  -1   2 4480.76 1401.29   4
 -20   1   2 4452.15 1234.15   2
 -20  -1  -2 4235.88 1305.39   6
  20   1  -2 4539.26 1432.38   4
  20   1  -1 6640.67 1472.24   7
  20  -1   1 5614.08 1366.71   4
 -20   1   1 5086.59 1434.31   2
 -20  -1  -1 5234.73 1179.22   2
 -20   1   1 4423.65 1531.03   6
  20   1  -1 5458.80 1401.93   4
 -20   1   0 542.571 724.403   2
  20  -1   0-227.461 677.711   7
  20  -1   0 238.551 559.118   4
  20   1   0 555.282 683.307   4
 -20   1   0 1455.30 973.530   6
 -20  -1   0-99.8334 1120.99   2
  20  -1  -1 4766.83 1094.30   7
  20   1   1 6107.23 1363.82   4
  20  -1  -1 5615.83 1349.62   4
 -20   1  -1 4641.73 1464.12   6
 -20  -1   1 5484.38 1391.78   2
  20  -1  -2 3851.37 928.562   7
  20   1   2 6380.96 1601.18   4
 -20   1  -2 2728.24 935.504   6
  20  -1  -2 4673.13 1164.59   4
 -20  -1   2 4671.32 1342.18   2
 -20   1  -3 11937.9 2636.32   3
  20  -1  -3 7737.25 1371.09   5
  20  -1  -3 10215.6 1762.25   7
  20   1   3 8453.16 1836.45   4
 -20   1  -3 9308.28 1797.26   6
  20  -1  -3 11839.2 1901.15   4
 -20  -1   3 8302.27 1822.69   2
  20  -1  -4 2686.86 939.306   5
 -20   1  -4 1519.23 1834.92   3
  20  -1  -4 4378.00 1359.99   7
  20   1   4 3916.41 1438.27   4
 -20   1  -4 3317.89 948.825   6
 -20  -1   4 2613.44 1153.35   2
 -20  -2  -4-1085.12 1603.83   3
  20   2  -4 1226.51 924.683   7
  20  -2   4 384.624 853.353   4
 -20   2   4 207.225 357.423   2
 -20   2   4 29.8232 211.511   6
 -20  -2  -3 2740.91 1388.08   3
  20   2  -3 1364.19 914.276   7
  20  -2   3 1065.74 825.701   4
 -20   2   3 1337.85 857.613   2
 -20  -2  -3 892.342 607.100   6
 -20   2   3-16.7143 681.024   6
  20   2  -2 1959.81 916.380   7
  20  -2   2 234.484 1068.15   4
 -20   2   2-242.803 769.006   2
 -20  -2  -2 132.222 660.194   2
 -20   2   2 31.2923 870.958   6
 -20  -2  -2-199.037 976.798   6
  20   2  -2-235.228 1161.97   4
  20  -2   1 11854.0 1784.38   4
  20  -2   1 12426.6 1241.70   7
  20   2  -1 11977.8 1860.99   7
 -20   2   1 13104.1 2297.40   6
 -20  -2  -1 10403.8 1667.12   2
  20   2  -1 12126.3 2132.48   4
  20   2   0 1903.51 730.170   5
  20  -2   0 2144.64 610.371   7
  20  -2   0 3290.62 1197.97   4
 -20   2   0 2961.75 1132.47   6
  20   2   0 3096.47 1253.12   4
 -20  -2   0 2847.97 876.817   2
  20  -2  -1 11063.4 1368.75   7
  20  -2  -1 12347.3 1825.81   4
 -20   2  -1 10971.1 2005.58   6
  20   2   1 11699.3 2053.37   4
 -20  -2   1 13051.2 2040.60   2
 -20  -2   2 99.5169 957.463   2
 -20   2  -2-1430.50 1587.50   3
  20  -2  -2 1083.47 608.316   7
  20   2   2 327.373 1048.45   4
 -20   2  -2 1094.67 574.873   6
  20  -2  -2-1035.57 767.503   4
 -20  -2   3-486.373 1240.60   2
 -20   2  -3 1887.82 1032.17   3
  20  -2  -3 2539.52 878.317   5
  20  -2  -3 1895.59 694.221   7
  20   2   3 736.795 849.173   4
 -20   2  -3 619.680 1081.78   6
  20  -2  -3 2555.04 1154.94   4
  20  -2  -4-144.767 888.642   5
 -20   2  -4 1543.47 1309.03   3
  20  -2  -4-848.827 819.100   7
 -20   2  -4-956.220 871.253   6
  20   2   4 1135.55 1031.07   4
 -20  -3  -4 1723.16 1826.39   3
  20   3  -4 2207.97 1100.70   7
  20  -3   4 2299.81 1338.39   4
 -20   3   4 2021.11 1350.03   6
 -20  -3  -3 194.900 1128.01   3
  20   3  -3 926.348 1014.56   7
  20  -3   3 154.373 1173.23   4
 -20   3   3 1026.19 909.676   6
 -20  -3  -3-1454.22 860.065   6
  20   3  -2 6410.92 1617.66   7
  20  -3   2 6847.03 1646.51   4
 -20   3   2 7179.34 1872.63   6
 -20  -3  -2 6406.86 1207.77   2
  20   3  -2 9411.94 2125.45   4
  20   3  -1 1162.21 747.885   7
  20  -3   1 83.0750 861.020   4
 -20   3   1-1014.83 1115.61   6
  20   3  -1 947.637 968.291   4
 -20  -3  -1 2902.07 857.253   2
 -20  -3   0-117.546 647.561   2
  20  -3   0-581.661 326.807   7
  20  -3   0 694.033 826.309   4
 -20   3   0-1464.60 937.707   6
  20   3   0 31.9881 821.355   4
 -20  -3   1 556.238 858.018   2
  20  -3  -1 1100.67 413.959   7
  20  -3  -1 511.995 601.905   4
 -20   3  -1 2418.91 1038.90   6
  20   3   1 1525.46 1030.81   4
 -20  -3   2 5084.81 1428.76   2
 -20   3  -2 3859.69 2023.31   3
  20  -3  -2 6461.33 1144.25   7
 -20   3  -2 7677.86 1731.24   6
  20   3   2 6198.10 1720.29   4
  20  -3  -2 7138.81 1373.81   4
 -20  -3   3 794.689 825.152   2
 -20   3  -3 921.293 1083.47   3
  20  -3  -3 1706.97 859.401   5
  20  -3  -3 760.387 710.640   7
 -20   3  -3 356.481 906.521   6
  20   3   3 1414.45 1312.71   4
  20  -3  -3 43.6168 893.366   4
 -20  -3   4 4593.70 1675.38   2
  20  -3  -4 3629.40 1054.54   5
 -20   3  -4 3801.15 1551.87   3
  20  -3  -4 3001.03 1021.07   7
 -20   3  -4-412.224 1114.16   6
  20   3   4 2101.22 1280.15   4
 -20  -4  -3 888.875 1374.90   3
  20   4  -3 682.089 992.558   7
  20  -4   3 1365.46 1064.34   4
 -20   4   3 276.625 949.058   6
  20   4  -2 627.385 834.323   7
  20  -4   2 169.793 932.051   4
 -20   4   2 635.266 913.397   6
 -20  -4  -2 776.327 571.631   2
 -20  -4  -1 1484.04 900.340   2
  20   4  -1 2599.58 1094.18   7
  20  -4   1 2554.78 1172.04   4
 -20   4   1 1546.53 1220.18   6
  20   4  -1 997.312 1008.84   4
 -20  -4   0 2610.76 1037.89   2
  20  -4   0 1040.27 924.984   4
 -20   4   0 2767.21 1440.82   6
  20   4   0 2211.98 1393.80   4
 -20   4  -1 3295.48 1457.59   3
 -20  -4   1 2991.08 1083.71   2
  20  -4  -1 1732.23 884.829   4
 -20   4  -1 1582.48 1100.10   6
  20   4   1 1511.97 929.775   4
 -20  -4   2 332.514 703.063   2
 -20   4  -2-1334.89 1436.76   3
 -20   4  -2 1015.73 1283.80   6
  20  -4  -2 1141.35 666.052   4
 -20  -4   3 464.691 1234.86   2
 -20   4  -3 4309.31 1750.94   3
  20  -4  -3 918.899 907.264   5
 -20   4  -3 2737.62 1408.85   6
  20   4   3 317.363 1422.36   4
 -20  -5  -3 4125.21 1912.44   3
  20   5  -3 1857.79 814.121   7
 -20   5   3 2848.76 843.495   6
  20   5  -2-1968.49 1189.54   7
  20  -5   2 473.031 716.705   4
 -20   5   2-3053.65 1645.80   6
 -20  -5  -1 2967.66 1047.32   2
  20   5  -1 2297.69 1307.83   7
  20  -5   1 1518.87 1226.50   4
 -20   5   1 1970.23 1283.91   6
  20   5  -1 1582.64 1492.22   4
 -20  -5   0 617.699 1022.77   2
  20  -5   0 874.076 437.609   4
 -20   5   0-385.792 657.896   6
  20   5   0 34.8193 1093.09   4
 -20   5  -1 2266.43 1504.06   3
 -20  -5   1 647.867 845.726   2
  20  -5  -1-455.979 987.066   4
 -20   5  -1 2046.89 1287.85   6
  20   5   1 2773.65 1505.53   4
 -20   5  -2-743.576 1319.42   3
 -20  -5   2-655.021 847.766   2
 -20   5  -2 383.467 794.395   6
  20   5   2 291.303 1380.82   4
 -20  -5   3 1263.49 1069.62   2
  20  -5  -3 1588.75 960.558   5
 -20   5  -3 1401.38 1424.33   3
 -20   5  -3-1300.40 775.410   6
  20   5   3 293.504 1420.68   4
 -20  -6  -1-1098.51 831.114   2
  20   6  -1-667.016 850.204   7
  20  -6   1-634.511 1276.38   4
 -20   6   1-393.255 407.580   6
 -20   6   0 1843.85 1271.19   3
 -20  -6   0 4365.56 1144.16   2
  20  -6   0 3345.06 993.731   4
 -20   6   0 2163.11 1210.10   6
  20   6   0 2170.93 1596.25   4
 -20   6  -1-1524.99 1479.57   3
 -20  -6   1 345.408 418.245   2
 -20   6  -1-1068.27 1141.60   6
  21   0   0 130.329 290.316   7
 -21   0   0 253.374 433.013   2
  21   0   0-1392.68 918.182   4
 -21   0   0 14.4226 739.082   6
 -21   0  -1 855.973 768.694   2
  21   0  -1 1370.97 804.580   7
  21   0   1 2072.55 1018.78   4
 -21   0   1 1364.99 1037.56   2
  21   0  -1 1743.47 1117.35   4
 -21   0  -1 1283.25 738.295   6
  21   0  -2 30.0389 478.399   7
  21   0   2 740.992 987.344   4
 -21   0  -2 383.260 672.055   6
 -21   0   2-57.3919 1099.43   2
  21   0  -2-171.483 948.651   4
 -21   0  -3 5183.70 2100.34   3
  21   0  -3 5775.54 1109.35   5
  21   0  -3 7393.63 1706.41   7
  21   0   3 7786.77 1840.13   4
 -21   0  -3 5487.90 1469.65   6
 -21   0   3 6268.45 1783.16   2
  21   0  -3 6374.05 1596.18   4
 -21   0  -4 2749.16 2345.42   3
  21   0  -4 1540.85 1127.81   7
  21   0   4 1815.38 1459.51   4
 -21   0  -4 2140.99 897.595   6
 -21   0   4 1722.32 1078.85   2
 -21  -1  -4-652.558 2498.31   3
  21   1  -4 456.820 753.256   7
  21  -1   4-73.2636 708.975   4
 -21   1   4-2051.06 1311.62   2
  21   1  -3 1250.62 936.492   7
  21  -1   3 1351.61 1051.32   4
 -21   1   3-1812.75 1058.13   2
 -21  -1  -3-628.529 783.388   6
  21   1  -3-315.588 1160.71   4
  21   1  -2 930.699 762.487   7
  21  -1   2 1251.64 1096.69   4
 -21   1   2 429.782 605.720   2
 -21  -1  -2 1066.10 923.457   6
 -21   1   2 2278.90 953.040   6
  21   1  -2 1546.20 1081.44   4
  21   1  -1 3662.88 1085.86   7
  21  -1   1 2589.33 1200.47   4
 -21   1   1 2692.25 1087.39   2
 -21  -1  -1 680.966 815.620   2
 -21   1   1 2199.24 1165.21   6
 -21  -1  -1 2529.95 1053.67   6
  21   1  -1 1968.12 1027.18   4
 -21   1   0 420.834 682.712   2
  21  -1   0 485.113 544.765   7
  21  -1   0 922.474 744.749   4
  21   1   0-447.531 614.971   4
 -21   1   0 1397.51 695.992   6
 -21  -1   0 627.543 694.132   2
  21  -1  -1 1938.36 840.242   7
  21   1   1 3950.23 1284.43   4
  21  -1  -1 1771.99 946.956   4
 -21   1  -1 1624.18 1063.07   6
 -21  -1   1 2998.13 1173.79   2
  21  -1  -2 2570.67 734.711   7
  21   1   2 894.826 958.114   4
 -21   1  -2-131.638 779.246   6
  21  -1  -2-11.2252 906.177   4
 -21  -1   2 922.551 890.683   2
 -21   1  -3 332.823 1352.10   3
  21  -1  -3 288.277 709.100   5
  21  -1  -3 1540.88 669.272   7
  21   1   3-279.433 1303.04   4
 -21   1  -3-2023.72 1149.51   6
 -21  -1   3-1998.16 1152.79   2
  21  -1  -3-995.841 940.295   4
  21  -1  -4 902.852 562.376   5
  21  -1  -4 2070.37 825.755   7
 -21   1  -4 1340.19 769.001   6
 -21  -1   4 2829.19 1043.82   2
 -21  -2  -4 3432.31 2265.13   3
  21   2  -4 3165.80 1156.22   7
  21  -2   4-388.525 1129.07   4
 -21   2   4 2397.06 852.058   2
 -21   2   4 2283.01 1156.90   6
 -21  -2  -3-765.126 1598.64   3
  21   2  -3 515.072 744.689   7
  21  -2   3-81.9419 1026.66   4
 -21   2   3 1568.63 957.475   2
 -21  -2  -3 366.566 403.368   6
 -21   2   3-1700.78 1407.80   6
  21   2  -2 4013.23 1211.03   7
  21  -2   2 4274.66 1462.55   4
 -21   2   2 6756.73 1652.55   2
 -21  -2  -2 7605.87 1288.46   2
 -21   2   2 6908.38 1636.85   6
 -21  -2  -2 7229.70 1586.00   6
  21   2  -2 5129.71 1605.88   4
  21  -2   1 2371.48 608.233   7
  21   2  -1 2840.23 982.766   7
  21  -2   1 3127.47 1097.80   4
 -21   2   1 485.003 1486.15   6
 -21  -2  -1 1485.03 863.648   2
  21   2  -1 2109.47 1427.82   4
  21  -2   0 1897.16 651.990   7
  21  -2   0 877.954 799.387   4
 -21   2   0 1913.15 1135.00   6
  21   2   0 1421.78 898.145   4
 -21  -2   0 511.227 862.551   2
  21  -2  -1 2247.19 631.234   7
  21  -2  -1 2395.36 975.446   4
 -21   2  -1 3051.14 1093.91   6
  21   2   1 2117.84 1119.85   4
 -21  -2   1 2622.33 1238.82   2
 -21   2  -2 2921.07 1867.31   3
  21  -2  -2 5807.19 1222.65   7
  21   2   2 7303.00 1777.29   4
 -21   2  -2 5639.27 1472.64   6
  21  -2  -2 4803.71 1198.01   4
 -21  -2   2 3615.91 1289.07   2
 -21  -2   3-572.266 1336.11   2
 -21   2  -3 136.254 1246.65   3
  21  -2  -3 322.490 647.273   5
  21  -2  -3-547.729 896.898   7
  21   2   3-254.790 826.682   4
 -21   2  -3 2188.07 1152.08   6
  21  -2  -3 70.9329 897.681   4
 -21  -2   4 827.300 1089.69   2
  21  -2  -4 3316.83 946.047   5
 -21   2  -4 43.7140 1987.47   3
  21  -2  -4 4816.89 1149.08   7
 -21   2  -4-736.576 981.580   6
  21   2   4-58.0793 1365.87   4
 -21  -3  -3 2238.51 1801.46   3
  21   3  -3 2742.41 1229.51   7
  21  -3   3 1935.18 1209.19   4
 -21   3   3 4392.44 1282.33   6
 -21  -3  -3 2463.79 899.555   6
  21   3  -2 447.155 843.970   7
  21  -3   2-1486.83 1129.08   4
 -21  -3  -2 1794.69 789.856   2
 -21   3   2-827.997 1461.47   6
  21   3  -2-2033.81 1125.46   4
  21   3  -1 4704.88 1248.63   7
  21  -3   1 5530.62 1430.69   4
 -21   3   1 7258.19 1703.83   6
  21   3  -1 7459.61 2070.98   4
 -21  -3  -1 5607.43 1368.99   2
  21  -3   0 3280.93 1163.15   4
 -21   3   0 5053.81 1487.80   6
  21   3   0 3221.99 1368.47   4
 -21  -3   0 4073.32 1296.35   2
 -21  -3   1 6590.67 1626.94   2
  21  -3  -1 5763.02 1318.22   4
 -21   3  -1 4884.15 1538.29   6
  21   3   1 4867.57 1636.24   4
 -21  -3   2-84.7979 827.097   2
 -21   3  -2 1034.33 965.456   3
  21  -3  -2 1295.84 474.099   7
 -21   3  -2 2958.15 1048.97   6
  21   3   2 1342.32 1276.22   4
  21  -3  -2-133.164 1014.28   4
 -21  -3   3 2608.06 1160.45   2
 -21   3  -3 3325.84 2027.55   3
  21  -3  -3 3025.98 1200.82   5
  21  -3  -3 2789.64 796.112   7
 -21   3  -3 1211.17 1397.93   6
  21   3   3 1186.78 986.367   4
 -21  -4  -3 917.526 1179.22   3
  21   4  -3 3616.48 1203.03   7
  21  -4   3 617.019 902.061   4
 -21   4   3 1068.55 1002.20   6
  21   4  -2 1379.35 1150.51   7
 -21   4   2-403.784 704.647   6
 -21  -4  -2-1307.31 841.349   2
  21   4  -1 4102.71 1516.31   7
  21  -4   1 3363.16 1140.35   4
 -21   4   1 4531.91 1341.93   6
  21   4  -1 3869.70 1433.02   4
 -21  -4  -1 1167.57 934.889   2
 -21  -4   0 504.679 755.691   2
  21  -4   0 314.790 654.193   4
 -21   4   0-1456.91 1267.07   6
  21   4   0-620.867 997.818   4
 -21   4  -1 637.028 1054.10   3
 -21  -4   1 3574.82 1315.98   2
  21  -4  -1 3091.08 1052.90   4
 -21   4  -1 887.296 1311.76   6
  21   4   1 2335.92 1193.35   4
 -21  -4   2 693.245 899.902   2
 -21   4  -2 613.557 1264.32   3
 -21   4  -2 826.287 885.672   6
  21  -4  -2 270.031 594.556   4
  21   4   2 465.361 1099.14   4
 -21  -4   3 1833.71 964.243   2
 -21   4  -3 1097.82 1707.86   3
  21  -4  -3 352.838 1224.01   5
 -21   4  -3 1347.16 1073.04   6
  21   4   3 1988.61 1015.07   4
  21  -5   2-171.351 793.671   4
 -21   5   2-1481.13 1135.70   6
 -21  -5  -1-1749.99 1094.29   2
  21   5  -1 994.241 958.048   7
  21  -5   1 531.918 847.509   4
 -21   5   1 2471.08 1418.19   6
  21   5  -1-1510.20 1357.63   4
 -21  -5   0 1758.21 1115.59   2
  21  -5   0 3361.44 1232.17   4
 -21   5   0 2135.18 1417.02   6
  21   5   0 3618.42 1630.77   4
 -21   5  -1-2897.58 1503.73   3
 -21  -5   1 951.893 912.254   2
  21  -5  -1 1232.42 891.063   4
 -21   5  -1-2008.51 1489.22   6
  21   5   1-482.899 1447.22   4
 -21  -5   2-546.969 1138.63   2
 -21   5  -2-659.265 1457.07   3
 -21   5  -2 957.061 864.964   6
  21   5   2 1162.51 1258.14   4
  22   0   0 802.827 621.648   7
 -22   0   0 708.983 632.747   2
  22   0   0-377.633 771.122   4
 -22   0   0 306.868 730.248   6
  22   0  -1 6924.20 1331.40   7
  22   0   1 5888.45 1674.30   4
 -22   0   1 6712.57 1712.78   2
 -22   0  -1 7506.02 1542.21   6
  22   0  -1 6319.40 1499.83   4
  22   0  -2 2742.22 1030.76   7
  22   0   2 2035.14 1054.34   4
 -22   0  -2 1071.51 1131.51   6
 -22   0   2 2277.27 1310.68   2
  22   0  -2 2678.38 1328.90   4
 -22   0  -3 1752.39 1719.19   3
  22   0  -3 3930.50 938.697   5
  22   0  -3 715.740 1022.35   7
  22   0   3 3583.22 1373.66   4
 -22   0  -3 1182.66 1019.19   6
 -22   0   3 2614.07 1132.74   2
  22   0  -3 2142.00 1277.68   4
 -22   0  -4 282.461 2578.49   3
  22   0  -4 607.381 1030.62   7
  22   0   4 1084.20 1528.79   4
 -22   0   4 6129.57 1461.54   2
  22   1  -4 1214.42 1059.36   7
  22  -1   4 3385.08 1248.39   4
 -22   1   4 686.554 786.000   2
 -22  -1  -3-206.552 1490.55   3
  22   1  -3 893.319 1165.18   7
  22  -1   3 1916.85 1248.19   4
 -22   1   3 1557.08 738.697   2
 -22  -1  -3 839.797 917.010   6
  22   1  -3 1230.00 987.944   4
  22   1  -2 2621.13 970.359   7
  22  -1   2 286.492 1066.97   4
 -22   1   2 1800.27 891.889   2
 -22  -1  -2 2794.38 1328.01   6
 -22   1   2 104.156 760.771   6
  22   1  -2 948.208 1154.67   4
  22   1  -1-1159.26 850.229   7
 -22   1   1-573.261 649.011   2
  22  -1   1 1257.09 905.340   4
 -22  -1  -1 152.416 602.590   2
 -22   1   1-1129.45 1005.02   6
 -22  -1  -1 944.950 990.483   6
  22   1  -1 1099.30 1057.96   4
  22  -1   0 1180.84 686.416   7
  22  -1   0 722.517 726.651   4
 -22  -1   0 1263.92 1064.99   2
  22   1   0 541.536 970.455   4
 -22   1   0-233.394 801.803   6
  22  -1  -1-45.3401 489.979   7
  22   1   1 642.773 1158.96   4
 -22   1  -1-988.853 783.865   6
  22  -1  -1-58.3877 919.723   4
 -22  -1   1 440.509 928.389   2
  22  -1  -2 78.5611 680.548   7
  22   1   2 4012.53 1299.60   4
 -22   1  -2 1121.22 1053.21   6
  22  -1  -2 2781.29 1008.29   4
 -22  -1   2 2251.91 1182.03   2
 -22   1  -2 2173.82 1342.94   3
 -22   1  -3-1576.40 1547.77   3
  22  -1  -3 2876.70 761.935   5
  22  -1  -3 1126.64 831.692   7
  22   1   3 2017.99 1252.04   4
 -22   1  -3 1459.71 1012.67   6
 -22  -1   3 1389.22 1037.74   2
  22  -1  -3 1763.71 1054.09   4
  22  -1  -4 1186.41 520.346   5
 -22   1  -4 1359.01 1307.85   3
  22  -1  -4 138.658 632.168   7
  22   1   4 3007.55 1046.74   4
 -22   1  -4 2889.46 991.449   6
 -22  -1   4 950.189 688.253   2
 -22  -2  -3-623.840 1630.86   3
  22   2  -3-257.561 937.851   7
  22  -2   3 70.7048 1165.86   4
 -22   2   3 1259.30 1145.70   2
 -22  -2  -3 1714.31 938.087   6
 -22   2   3 2139.03 990.505   6
 -22   2   2-1759.56 1371.72   2
  22   2  -2-339.898 1028.07   7
  22  -2   2-607.388 946.988   4
 -22  -2  -2 317.641 740.614   2
 -22   2   2 1799.56 902.143   6
 -22  -2  -2-1374.45 918.119   6
  22   2  -2 1230.26 1029.09   4
  22  -2   1 1545.17 510.298   7
  22   2  -1 871.797 955.475   7
  22  -2   1 1004.03 858.876   4
 -22  -2  -1 306.554 720.214   2
 -22   2   1 1346.31 1141.12   6
  22   2  -1 1376.24 989.511   4
  22  -2   0 863.875 477.924   7
  22  -2   0 583.242 855.695   4
 -22   2   0-1422.84 1121.09   6
  22   2   0 1506.49 1112.68   4
 -22  -2   0 831.662 861.376   2
  22  -2  -1 1538.51 651.703   7
  22  -2  -1 984.233 743.828   4
 -22   2  -1 1142.56 634.589   6
  22   2   1 2150.12 1207.13   4
 -22  -2   1 957.110 829.483   2
 -22   2  -2 477.086 1396.49   3
  22  -2  -2 39.0130 624.961   7
 -22   2  -2-77.6586 673.010   6
  22   2   2-9.67614 1113.45   4
  22  -2  -2 118.859 505.868   4
 -22  -2   2 548.975 901.145   2
 -22   2  -3-1196.93 1338.44   3
  22  -2  -3 26.1283 622.751   5
  22  -2  -3-477.761 739.116   7
 -22   2  -3 492.706 1126.34   6
  22   2   3 1974.30 1204.63   4
  22  -2  -3 1981.20 1046.23   4
 -22  -2   3 1214.98 1166.64   2
 -22  -3  -3 2295.32 1568.93   3
  22   3  -3 2922.04 1010.70   7
  22  -3   3 2071.79 1011.75   4
 -22   3   3 4303.19 1452.65   6
  22   3  -2 700.095 765.704   7
  22  -3   2 168.719 983.484   4
 -22  -3  -2-154.238 809.907   2
 -22   3   2-29.8201 1185.47   6
  22   3  -2-60.0408 849.290   4
  22   3  -1 29.3460 900.859   7
  22  -3   1-122.579 729.972   4
 -22   3   1-1656.16 1169.61   6
 -22  -3  -1 432.679 781.457   2
  22   3  -1 532.919 1008.57   4
  22  -3   0-409.342 783.093   4
 -22   3   0 839.050 539.311   6
  22   3   0-1622.20 1175.33   4
 -22  -3   0-1097.49 814.990   2
 -22  -3   1 704.611 1118.72   2
  22  -3  -1-2392.53 1141.36   4
 -22   3  -1-1267.97 993.984   6
  22   3   1-1429.32 1142.02   4
 -22  -3   2 203.323 1076.63   2
 -22   3  -2 746.722 897.770   3
 -22   3  -2 356.841 491.946   6
  22   3   2 1634.10 1111.67   4
  22  -3  -2 837.557 626.909   4
 -22  -3   3 213.016 952.758   2
 -22   3  -3 2685.78 1424.70   3
  22  -3  -3 3563.62 948.814   5
 -22   3  -3 2021.50 1110.37   6
  22   3   3 777.601 1068.02   4
  22   4  -2 38.0330 994.747   7
  22  -4   2-522.700 1357.78   4
 -22   4   2-37.6055 930.936   6
  22   4  -2 1040.43 1067.17   4
  22   4  -1 258.699 873.154   7
  22  -4   1-77.6776 1059.52   4
 -22   4   1 594.944 675.404   6
  22   4  -1 147.600 978.052   4
 -22  -4  -1-2088.53 1042.84   2
 -22  -4   0-1631.94 1146.28   2
  22  -4   0 166.930 395.498   4
 -22   4   0 384.145 744.909   6
  22   4   0 716.968 1013.00   4
 -22  -4   1-753.505 842.955   2
 -22   4  -1-415.507 1474.30   3
  22  -4  -1 617.643 908.610   4
 -22   4  -1 790.507 1215.81   6
  22   4   1 2217.10 1261.04   4
 -22  -4   2 3579.90 1133.38   2
 -22   4  -2 1711.93 1403.70   3
 -22   4  -2 1320.06 1135.18   6
  22   4   2 1321.67 1301.53   4
 -22  -5  -1-1321.37 936.405   2
  22   5  -1 2999.75 1147.35   7
  22  -5   1 956.586 956.618   4
 -22   5   1 2537.56 1279.03   6
  22   5  -1-159.388 1251.50   4
 -22  -5   0-1311.09 976.562   2
  22  -5   0-1912.41 1168.61   4
 -22   5   0-1088.43 998.953   6
  22   5   0-1962.79 1496.57   4
 -22   5  -1-1282.29 906.915   3
 -22  -5   1-628.650 770.108   2
 -22   5  -1 1936.23 786.808   6
  22   5   1 2117.82 1255.69   4
  23   0   0 425.628 668.496   7
 -23   0   0 464.535 622.669   2
  23   0   0 405.996 682.953   4
 -23   0   0 696.522 854.444   6
  23   0  -1 897.154 656.772   7
  23   0   1 931.073 1193.91   4
 -23   0   1 911.066 1026.87   2
 -23   0  -1 769.139 812.498   6
  23   0  -1 678.257 948.326   4
  23   0  -2-1479.60 882.470   7
  23   0   2-1398.49 1404.01   4
 -23   0  -2-1263.77 977.046   6
 -23   0   2-149.771 1145.09   2
  23   0  -2-125.118 657.758   4
 -23   0  -3 4632.54 2077.94   3
  23   0  -3 4654.40 1312.52   7
  23   0   3 4661.16 1617.60   4
 -23   0  -3 2331.99 1255.67   6
 -23   0   3 1446.80 1390.19   2
  23   0  -3 6713.01 1550.35   4
 -23  -1  -3 1186.64 1574.45   3
  23   1  -3 1075.52 1157.11   7
  23  -1   3 308.502 1001.35   4
 -23   1   3-813.225 1110.35   2
 -23  -1  -3 2046.77 806.119   6
 -23   1   3 1811.18 952.998   6
  23   1  -3 889.175 1009.30   4
  23   1  -2-273.033 870.401   7
  23  -1   2-38.4892 688.577   4
 -23   1   2 472.334 556.285   2
 -23  -1  -2 209.735 903.108   6
 -23   1   2 159.175 1324.62   6
  23   1  -2 347.387 1245.19   4
  23   1  -1 3675.54 1203.56   7
  23  -1   1 4031.22 990.649   7
 -23   1   1 3075.96 1345.92   2
 -23  -1  -1 3809.50 1217.29   2
  23  -1   1 2607.10 1388.33   4
 -23   1   1 1443.00 1238.80   6
 -23  -1  -1 2938.29 1175.00   6
  23   1  -1 3173.08 1335.03   4
  23  -1   0 530.072 535.556   7
  23   1   0-24.3133 468.166   7
  23  -1   0 153.639 706.666   4
 -23  -1   0 303.710 618.912   2
  23   1   0-297.228 1032.46   4
 -23   1   0-176.498 1098.97   6
  23  -1  -1 3734.95 1099.00   7
  23   1   1 3447.95 1347.00   4
 -23   1  -1 3865.57 1316.42   6
  23  -1  -1 3527.48 1329.77   4
 -23  -1   1 4974.10 1481.16   2
  23  -1  -2-634.787 706.925   7
  23   1   2 893.336 1181.32   4
 -23   1  -2-2318.42 1289.18   6
  23  -1  -2-558.095 782.167   4
 -23  -1   2-194.940 970.577   2
 -23   1  -2 958.104 1014.81   3
 -23   1  -3 1883.84 1736.61   3
  23  -1  -3-1528.46 626.378   5
  23  -1  -3 859.339 892.333   7
  23   1   3 2332.91 1384.70   4
 -23   1  -3 3133.89 1227.52   6
 -23  -1   3 1750.43 1036.42   2
  23  -1  -3 102.828 876.811   4
 -23  -2  -3 1813.37 1447.83   3
  23   2  -3 578.602 1026.03   7
  23  -2   3 1720.26 1057.25   4
 -23   2   3-314.810 672.943   2
 -23  -2  -3 251.684 294.281   6
 -23   2   3-1564.69 1142.04   6
  23   2  -2 2392.17 1187.21   7
  23  -2   2 3284.04 1292.36   4
 -23  -2  -2 3469.12 1136.66   2
 -23   2   2 4215.67 1844.38   6
 -23  -2  -2 3686.68 1190.49   6
  23   2  -2 727.627 989.043   4
  23   2  -1-47.0158 887.936   7
  23  -2   1 2141.60 768.279   4
 -23  -2  -1 234.533 718.049   2
 -23   2   1 241.013 1031.58   6
  23   2  -1-119.165 718.348   4
  23  -2   0-29.4875 1032.23   4
 -23   2   0 594.775 1215.33   6
  23   2   0-308.487 1298.70   4
 -23  -2   0 1754.90 1111.46   2
  23  -2  -1 1490.39 493.736   7
  23  -2  -1 1040.87 773.615   4
  23   2   1 1427.10 948.855   4
 -23  -2   1 712.988 467.513   2
 -23   2  -2 3147.59 1781.05   3
  23  -2  -2 5326.38 1095.99   7
 -23   2  -2 2303.12 1384.98   6
  23   2   2 3181.00 1480.77   4
  23  -2  -2 1749.48 1053.50   4
 -23  -2   2 4001.05 1391.84   2
 -23   2  -3 58.8408 1439.59   3
  23  -2  -3 135.985 775.340   5
  23  -2  -3 834.769 616.802   7
 -23   2  -3 759.294 547.249   6
  23   2   3-348.225 1294.61   4
  23  -2  -3-230.265 1098.14   4
 -23  -2   3 1525.51 736.901   2
  23   3  -2 252.006 1316.40   7
  23  -3   2 2350.41 1203.70   4
 -23   3   2 4333.82 1541.46   6
  23   3  -2 4131.38 1310.89   4
  23   3  -1 2459.56 1124.77   7
  23  -3   1 3734.55 1181.81   4
 -23   3   1 1613.94 1421.88   6
 -23  -3  -1 2102.71 1223.95   2
  23   3  -1 3056.98 1535.11   4
  23  -3   0 2992.66 1204.11   4
 -23   3   0 2541.76 1086.86   6
  23   3   0-416.516 1253.05   4
 -23  -3   0 1437.38 1073.23   2
 -23   3  -1 2945.06 1385.25   6
  23  -3  -1 3215.77 1226.23   4
  23   3   1 3343.68 1636.47   4
 -23  -3   1 6565.21 1452.40   2
 -23  -3   2 3078.15 1572.79   2
 -23   3  -2 2912.95 1784.36   3
 -23   3  -2 752.808 1100.04   6
  23   3   2 2179.33 1316.00   4
  23  -3  -2 2101.13 1031.39   4
  23   4  -2 1264.65 833.778   7
  23  -4   2 1860.84 828.187   4
 -23   4   2 780.041 642.617   6
  23   4  -2 1032.39 1204.94   4
  23   4  -1 363.626 977.114   7
  23  -4   1 2818.76 1082.95   4
 -23   4   1 2305.66 1184.86   6
 -23  -4  -1-24.4480 308.686   2
  23   4  -1 1750.30 1236.77   4
 -23  -4   0-97.3684 669.813   2
  23  -4   0-605.785 828.281   4
 -23   4   0-930.190 1175.01   6
  23   4   0-1552.62 1215.54   4
 -23  -4   1 956.525 731.592   2
 -23   4  -1-504.867 1914.93   3
 -23   4  -1 497.978 517.060   6
  23  -4  -1 269.008 449.280   4
  23   4   1 1173.18 1253.67   4
 -23  -4   2-1455.04 1169.54   2
 -23   4  -2-2039.16 1346.01   3
 -23   4  -2 721.653 539.593   6
  23   4   2 721.205 1424.55   4
  24   0   0 810.752 785.540   7
 -24   0   0-1892.05 1240.84   2
  24   0   0 482.207 1013.67   4
 -24   0   0 1801.88 1042.34   6
  24   0  -1 10025.9 1587.39   7
  24   0   1 9820.84 1926.40   4
 -24   0   1 10757.8 1973.62   2
 -24   0  -1 7747.19 1928.57   6
  24   0  -1 10825.0 2041.07   4
 -24   0   1 9524.86 2092.87   6
  24   0  -2 3783.49 1283.16   7
  24   0   2 2479.70 1231.23   4
 -24   0   2 5042.92 1679.47   2
 -24   0  -2 6242.84 1785.29   6
  24   0  -2 7104.41 1673.04   4
 -24   0  -3-763.250 1754.22   3
  24   0  -3 4903.85 1453.55   7
  24   0   3 3957.84 1635.54   4
 -24   0  -3 2024.29 1268.57   6
 -24   0   3 4685.51 1727.36   2
  24   0  -3 3808.25 1263.55   4
 -24  -1  -3 2534.23 1362.64   3
  24   1  -3-221.769 769.418   7
  24  -1   3 1024.92 1086.90   4
 -24   1   3-740.488 900.402   2
 -24  -1  -3-3059.28 1333.37   6
 -24   1   3-48.0706 389.432   6
  24   1  -3 2218.98 1433.62   4
  24   1  -2 3218.56 1124.13   7
  24  -1   2 1941.22 1211.15   4
 -24   1   2 674.626 1190.44   2
 -24  -1  -2 4409.98 1442.87   6
 -24   1   2 4380.93 1665.37   6
  24   1  -2 1841.77 1211.51   4
  24   1  -1 2411.23 796.212   7
  24  -1   1 420.034 401.430   7
 -24   1   1 1076.48 843.699   2
 -24  -1  -1-921.312 1020.40   2
  24  -1   1 1239.51 1103.51   4
 -24   1   1 4004.32 1297.42   6
 -24  -1  -1-2218.76 1104.17   6
  24   1  -1-649.983 660.710   4
  24  -1   0 143.651 562.683   7
  24   1   0 97.3935 624.166   7
  24  -1   0 1208.67 1039.96   4
 -24  -1   0 994.036 830.939   2
  24   1   0 300.627 1068.24   4
 -24   1   0-1584.74 1326.78   6
  24  -1  -1-789.659 686.736   7
  24   1   1-621.843 1381.20   4
 -24   1  -1 323.960 554.817   6
  24  -1  -1 119.391 960.915   4
 -24  -1   1 547.740 861.594   2
  24  -1  -2 3498.85 1041.31   7
  24   1   2 1420.29 1442.75   4
 -24   1  -2 1605.76 1063.30   6
 -24  -1   2 1103.80 1428.68   2
  24  -1  -2 2651.51 1189.56   4
 -24   1  -2 4712.65 1694.07   3
 -24   1  -3 2486.09 1360.48   3
  24  -1  -3 1254.49 594.330   5
  24  -1  -3 1943.84 1220.00   7
  24   1   3 787.183 1207.72   4
 -24   1  -3 413.055 1118.85   6
 -24  -1   3-1016.73 1151.56   2
  24  -1  -3 1363.87 946.010   4
 -24  -2  -2-405.646 706.333   2
  24   2  -2-617.820 821.112   7
  24  -2   2-30.5892 896.156   4
 -24   2   2 792.625 678.279   6
 -24  -2  -2-241.088 688.263   6
  24   2  -2 1622.07 992.318   4
  24   2  -1 1897.11 1086.53   7
  24  -2   1 3230.25 1293.02   4
 -24  -2  -1 4197.11 1088.24   2
 -24   2   1 1991.55 1381.02   6
  24   2  -1 3498.52 1484.32   4
  24  -2   0 3972.83 1534.15   4
 -24   2   0 5573.96 1735.88   6
 -24  -2   0 2531.87 1415.33   2
  24   2   0 4700.95 1399.70   4
 -24   2  -1 6228.82 1659.60   6
  24  -2  -1 1976.03 1077.68   4
  24   2   1 2971.31 1415.88   4
 -24  -2   1 3902.05 1155.23   2
 -24   2  -2-4103.76 2082.39   3
 -24   2  -2-522.118 964.959   6
  24   2   2-2235.43 1614.87   4
  24  -2  -2-2278.40 1071.72   4
 -24  -2   2-1373.10 1151.66   2
  24   3  -2 4.79142 1130.36   7
  24  -3   2 1253.55 922.446   4
 -24   3   2 1300.72 1280.23   6
 -24  -3  -2-246.851 660.819   6
  24   3  -2 2874.35 1341.96   4
  24   3  -1-220.260 1115.23   7
  24  -3   1-434.601 861.131   4
 -24   3   1-479.427 1228.81   6
 -24  -3  -1 3352.81 1090.61   2
  24   3  -1 925.242 1155.36   4
  24  -3   0-456.330 647.929   4
 -24   3   0 575.027 863.447   6
  24   3   0-1942.85 1242.76   4
 -24  -3   0-1929.02 1212.58   2
 -24   3  -1 2564.12 1247.69   6
  24  -3  -1 870.191 762.466   4
  24   3   1-190.573 1147.35   4
 -24  -3   1-61.9132 503.041   2
 -24   3  -2-2785.54 1430.49   3
 -24   3  -2 483.527 881.084   6
  24   3   2-175.696 1291.38   4
  24  -3  -2-1144.97 877.733   4
 -24  -3   2 1047.67 1226.59   2
  24  -4   0 1979.39 1234.21   4
 -24   4   0 766.760 1240.53   6
  24   4   0 1678.67 1596.15   4
 -24  -4   0 3311.35 1094.42   2
  25   0   0-753.654 674.989   7
 -25   0   0 446.946 1004.96   2
  25   0   0 1137.33 689.770   4
 -25   0   0-317.478 671.165   6
  25   0  -1 2316.40 744.983   7
 -25   0   1 2085.75 1111.06   2
  25   0   1 2045.63 1126.15   4
 -25   0  -1-519.726 1416.16   6
 -25   0   1-384.714 1194.69   6
  25   0  -1-194.075 683.040   4
  25   0  -2 1574.33 897.509   7
  25   0   2 2155.85 1277.05   4
 -25   0   2 1674.24 986.641   2
 -25   0  -2 1790.24 1327.74   6
  25   0  -2 3125.95 1444.31   4
  25   1  -2 542.272 577.416   7
 -25   1   2 21.1153 950.071   2
  25  -1   2-464.565 1212.32   4
 -25  -1  -2-1589.83 1202.23   6
 -25   1   2 2517.96 1196.83   6
  25   1  -2 1015.49 1160.02   4
 -25   1   1 352.917 940.736   2
  25   1  -1 1614.49 851.818   7
 -25  -1  -1 920.775 989.161   2
  25  -1   1 524.926 1165.02   4
 -25   1   1 4584.27 1504.36   6
 -25  -1  -1 1229.15 977.822   6
  25   1  -1 2577.57 1006.89   4
  25   1   0-650.967 706.413   7
 -25  -1   0-690.250 798.017   2
  25  -1   0 316.564 932.520   4
 -25   1   0 1840.23 1267.36   6
  25   1   0-350.208 1262.34   4
 -25  -1   0 84.7675 1073.15   6
  25  -1  -1 1047.77 892.942   7
  25   1   1 2110.96 1297.93   4
 -25   1  -1 625.072 1072.71   6
 -25  -1   1-715.270 1270.01   2
  25  -1  -1-1569.87 1649.02   4
  25  -1  -2 1276.78 652.023   7
  25   1   2 338.863 845.288   4
 -25   1  -2 559.420 1208.00   6
 -25  -1   2-2408.46 1405.24   2
  25  -1  -2 1469.25 1040.08   4
 -25   1  -2-2294.25 1709.87   3
  25   2  -1-1260.98 868.612   7
  25  -2   1 2507.23 1119.54   4
 -25  -2  -1 3050.14 863.837   2
 -25   2   1 2618.28 1365.58   6
 -25  -2  -1 1000.29 756.601   6
  25   2  -1 2289.10 1344.10   4
  25   2   0 212.285 671.782   7
  25  -2   0 968.171 967.722   4
 -25   2   0 422.010 484.941   6
  25   2   0-184.243 939.809   4
 -25   2  -1 3997.17 1340.14   6
  25  -2  -1 134.945 842.893   4
  25   2   1 1824.22 1316.74   4
 -25  -2   1 1811.90 1008.79   2
  25  -3   0-173.252 1208.25   4
 -25   3   0-983.789 1535.07   6
  25   3   0-937.674 1729.89   4
 -25  -3   0 2087.53 1056.68   2
 -26   0   0 2748.76 1109.53   2
  26   0   0 3181.49 997.010   7
  26   0   0 1057.47 1028.08   4
 -26   0   0 4597.66 1631.72   6
  26   0  -1 2061.68 1094.34   7
  26   0   1 2056.43 815.460   7
 -26   0   1 3619.12 1204.38   2
  26   0   1 2884.10 1409.94   4
 -26   0  -1 1549.27 1339.45   6
 -26   0   1 1308.48 1090.40   6
  26   0  -1 3036.81 1194.05   4
 -26  -1  -1 663.278 1176.77   2
  26   1  -1 1231.52 928.474   7
  26  -1   1 1044.88 817.205   4
 -26   1   1 1028.04 1218.45   6
 -26  -1  -1 1737.14 1133.54   6
  26   1  -1 2230.28 1328.23   4
  26   1   0-598.694 1117.09   7
 -26  -1   0 2335.90 1060.67   2
  26  -1   0 2962.50 916.814   4
 -26   1   0 1086.88 944.971   6
  26   1   0-1151.24 1310.86   4
 -26  -1   0 909.743 1192.59   6
 -26  -1   1 1833.51 1151.73   2
  26   1   1 3697.39 1229.16   4
 -26   1  -1 1098.80 930.025   6
  26  -1  -1 2211.39 910.116   4
   0   0   0    0.00    0.00   0
TITL BIM-IV-R_MO in P2(1)2(1)2
REM P2(1)2(1)2 (#18, found as P22(1)2(1) in -cba setting)
CELL 0.71073  21.115285   7.784572   6.134271  90.0000  90.0000  90.0000
ZERR    2.00   0.001561   0.000638   0.000451   0.0000   0.0000   0.0000
LATT -1
SYMM -x,-y, z
SYMM -x+1/2, y+1/2,-z
SYMM  x+1/2,-y+1/2,-z
SFAC C H N F S
UNIT 44.00 40.00 4.00 4.00 2.00
TREF
HKLF 4
END
;
_shelx_hkl_checksum              56706
####################################################################### 
# 
# This file contains crystal structure data downloaded from the 
# Cambridge Structural Database (CSD) hosted by the Cambridge 
# Crystallographic Data Centre (CCDC).
# 
# Full information about CCDC data access policies and citation 
# guidelines are available at http://www.ccdc.cam.ac.uk/access/V1 
# 
# Audit and citation data items may have been added by the CCDC. 
# Please retain this information to preserve the provenance of 
# this file and to allow appropriate attribution of the data. 
# 
#######################################################################

data_r080122c
_audit_block_doi                 10.5517/ccthsqs
_database_code_depnum_ccdc_archive 'CCDC 759956'
loop_
_citation_id
_citation_doi
_citation_year
1 10.1039/C3NJ40909K 2013
_audit_update_record             
;
2009-12-30 deposited with the CCDC.	2020-08-10 downloaded from the CCDC.
;
#TrackingRef '3.cif'


_audit_creation_method           SHELXL-97
_chemical_name_systematic        
;
?
;
_chemical_name_common            ?
_chemical_melting_point          ?
_chemical_formula_moiety         ?
_chemical_formula_sum            'C30 H20 S2'
_chemical_formula_weight         444.58

loop_
_atom_type_symbol
_atom_type_description
_atom_type_scat_dispersion_real
_atom_type_scat_dispersion_imag
_atom_type_scat_source
C C 0.0033 0.0016 'International Tables Vol C Tables 4.2.6.8 and 6.1.1.4'
H H 0.0000 0.0000 'International Tables Vol C Tables 4.2.6.8 and 6.1.1.4'
S S 0.1246 0.1234 'International Tables Vol C Tables 4.2.6.8 and 6.1.1.4'

_symmetry_cell_setting           Monoclinic
_symmetry_space_group_name_H-M   P2(1)/c

loop_
_symmetry_equiv_pos_as_xyz
'x, y, z'
'-x, y+1/2, -z+1/2'
'-x, -y, -z'
'x, -y-1/2, z-1/2'

_cell_length_a                   6.1134(12)
_cell_length_b                   12.529(3)
_cell_length_c                   14.622(3)
_cell_angle_alpha                90.00
_cell_angle_beta                 92.51(3)
_cell_angle_gamma                90.00
_cell_volume                     1118.9(4)
_cell_formula_units_Z            2
_cell_measurement_temperature    113(2)
_cell_measurement_reflns_used    3173
_cell_measurement_theta_min      3.228
_cell_measurement_theta_max      27.876

_exptl_crystal_description       ?
_exptl_crystal_colour            ?
_exptl_crystal_size_max          0.12
_exptl_crystal_size_mid          0.10
_exptl_crystal_size_min          0.06
_exptl_crystal_density_meas      ?
_exptl_crystal_density_diffrn    1.320
_exptl_crystal_density_method    'not measured'
_exptl_crystal_F_000             464
_exptl_absorpt_coefficient_mu    0.254
_exptl_absorpt_correction_type   MULTI-SCAN
_exptl_absorpt_correction_T_min  0.9702
_exptl_absorpt_correction_T_max  0.9849
_exptl_absorpt_process_details   crystalclear

_exptl_special_details           
;
?
;

_diffrn_ambient_temperature      113(2)
_diffrn_radiation_wavelength     0.71073
_diffrn_radiation_type           MoK\a
_diffrn_radiation_source         'rotating anode'
_diffrn_radiation_monochromator  confocal
_diffrn_measurement_device_type  'rigaku saturn'
_diffrn_measurement_method       '\w scans'
_diffrn_detector_area_resol_mean ?
_diffrn_standards_number         0
_diffrn_standards_interval_count 0
_diffrn_standards_interval_time  0
_diffrn_standards_decay_%        0
_diffrn_reflns_number            11099
_diffrn_reflns_av_R_equivalents  0.0382
_diffrn_reflns_av_sigmaI/netI    0.0251
_diffrn_reflns_limit_h_min       -7
_diffrn_reflns_limit_h_max       7
_diffrn_reflns_limit_k_min       -14
_diffrn_reflns_limit_k_max       14
_diffrn_reflns_limit_l_min       -17
_diffrn_reflns_limit_l_max       17
_diffrn_reflns_theta_min         3.23
_diffrn_reflns_theta_max         25.02
_reflns_number_total             1971
_reflns_number_gt                1790
_reflns_threshold_expression     >2sigma(I)

_computing_data_collection       crystalclear
_computing_cell_refinement       crystalclear
_computing_data_reduction        crystalclear
_computing_structure_solution    'SHELXS-97 (Sheldrick, 1990)'
_computing_structure_refinement  'SHELXL-97 (Sheldrick, 1997)'
_computing_molecular_graphics    'Bruker SHELXTL'
_computing_publication_material  'Bruker SHELXTL'

_refine_special_details          
;
Refinement of F^2^ against ALL reflections. The weighted R-factor wR and
goodness of fit S are based on F^2^, conventional R-factors R are based
on F, with F set to zero for negative F^2^. The threshold expression of
F^2^ > 2sigma(F^2^) is used only for calculating R-factors(gt) etc. and is
not relevant to the choice of reflections for refinement. R-factors based
on F^2^ are statistically about twice as large as those based on F, and R-
factors based on ALL data will be even larger.
;

_refine_ls_structure_factor_coef Fsqd
_refine_ls_matrix_type           full
_refine_ls_weighting_scheme      calc
_refine_ls_weighting_details     
'calc w=1/[\s^2^(Fo^2^)+(0.0608P)^2^+0.8557P] where P=(Fo^2^+2Fc^2^)/3'
_atom_sites_solution_primary     direct
_atom_sites_solution_secondary   difmap
_atom_sites_solution_hydrogens   geom
_refine_ls_hydrogen_treatment    CONSTR
_refine_ls_extinction_method     none
_refine_ls_extinction_coef       ?
_refine_ls_number_reflns         1971
_refine_ls_number_parameters     145
_refine_ls_number_restraints     0
_refine_ls_R_factor_all          0.0481
_refine_ls_R_factor_gt           0.0444
_refine_ls_wR_factor_ref         0.1179
_refine_ls_wR_factor_gt          0.1151
_refine_ls_goodness_of_fit_ref   1.103
_refine_ls_restrained_S_all      1.103
_refine_ls_shift/su_max          0.000
_refine_ls_shift/su_mean         0.000

loop_
_atom_site_label
_atom_site_type_symbol
_atom_site_fract_x
_atom_site_fract_y
_atom_site_fract_z
_atom_site_U_iso_or_equiv
_atom_site_adp_type
_atom_site_occupancy
_atom_site_symmetry_multiplicity
_atom_site_calc_flag
_atom_site_refinement_flags
_atom_site_disorder_assembly
_atom_site_disorder_group
S1 S 0.22534(8) 0.53581(4) 0.40313(3) 0.0216(2) Uani 1 1 d . . .
C1 C 0.2657(3) 0.40127(16) 0.43257(14) 0.0207(5) Uani 1 1 d . . .
C2 C 0.4304(3) 0.34219(17) 0.38299(13) 0.0215(5) Uani 1 1 d . . .
C3 C 0.6212(3) 0.39254(18) 0.35633(14) 0.0232(5) Uani 1 1 d . . .
H3 H 0.6457 0.4635 0.3723 0.028 Uiso 1 1 calc R . .
C4 C 0.7740(4) 0.33929(19) 0.30674(14) 0.0277(5) Uani 1 1 d . . .
H4 H 0.9004 0.3742 0.2899 0.033 Uiso 1 1 calc R . .
C5 C 0.7388(4) 0.23372(19) 0.28209(15) 0.0310(5) Uani 1 1 d . . .
H5 H 0.8413 0.1974 0.2487 0.037 Uiso 1 1 calc R . .
C6 C 0.5497(4) 0.18253(18) 0.30750(15) 0.0297(5) Uani 1 1 d . . .
H6 H 0.5262 0.1116 0.2909 0.036 Uiso 1 1 calc R . .
C7 C 0.3956(4) 0.23536(17) 0.35712(15) 0.0256(5) Uani 1 1 d . . .
H7 H 0.2691 0.2002 0.3733 0.031 Uiso 1 1 calc R . .
C8 C 0.1249(3) 0.36778(16) 0.49696(14) 0.0194(4) Uani 1 1 d . . .
C9 C 0.1156(3) 0.25999(16) 0.53958(13) 0.0208(5) Uani 1 1 d . . .
C10 C 0.2961(4) 0.21768(18) 0.58838(14) 0.0256(5) Uani 1 1 d . . .
H10 H 0.4259 0.2564 0.5934 0.031 Uiso 1 1 calc R . .
C11 C 0.2837(4) 0.11852(19) 0.62939(15) 0.0302(5) Uani 1 1 d . . .
H11 H 0.4047 0.0913 0.6624 0.036 Uiso 1 1 calc R . .
C12 C 0.0938(4) 0.05990(18) 0.62164(16) 0.0307(5) Uani 1 1 d . . .
H12 H 0.0870 -0.0073 0.6484 0.037 Uiso 1 1 calc R . .
C13 C -0.0885(4) 0.10163(18) 0.57352(15) 0.0279(5) Uani 1 1 d . . .
H13 H -0.2178 0.0625 0.5686 0.034 Uiso 1 1 calc R . .
C14 C -0.0777(3) 0.20061(17) 0.53320(14) 0.0237(5) Uani 1 1 d . . .
H14 H -0.2002 0.2282 0.5014 0.028 Uiso 1 1 calc R . .
C15 C 0.0176(3) 0.54750(16) 0.47789(14) 0.0204(5) Uani 1 1 d . . .

loop_
_atom_site_aniso_label
_atom_site_aniso_U_11
_atom_site_aniso_U_22
_atom_site_aniso_U_33
_atom_site_aniso_U_23
_atom_site_aniso_U_13
_atom_site_aniso_U_12
S1 0.0254(3) 0.0195(3) 0.0202(3) 0.00227(19) 0.0029(2) 0.0018(2)
C1 0.0244(11) 0.0188(10) 0.0185(10) 0.0013(8) -0.0020(8) 0.0011(8)
C2 0.0260(11) 0.0232(11) 0.0150(10) 0.0015(8) -0.0037(8) 0.0063(9)
C3 0.0260(11) 0.0250(11) 0.0179(10) 0.0017(8) -0.0040(8) 0.0003(9)
C4 0.0249(11) 0.0378(13) 0.0202(11) 0.0017(9) -0.0011(9) 0.0026(10)
C5 0.0325(13) 0.0377(13) 0.0227(11) -0.0050(10) 0.0002(9) 0.0090(10)
C6 0.0400(13) 0.0234(12) 0.0252(12) -0.0050(9) -0.0028(10) 0.0069(10)
C7 0.0292(12) 0.0234(11) 0.0237(11) 0.0000(9) -0.0033(9) 0.0014(9)
C8 0.0221(10) 0.0158(10) 0.0196(10) -0.0030(8) -0.0054(8) 0.0036(8)
C9 0.0262(11) 0.0196(10) 0.0168(10) -0.0024(8) 0.0017(8) 0.0038(8)
C10 0.0279(11) 0.0245(12) 0.0240(11) 0.0000(9) -0.0035(9) 0.0035(9)
C11 0.0340(13) 0.0308(13) 0.0250(12) 0.0015(10) -0.0052(9) 0.0093(10)
C12 0.0443(14) 0.0222(11) 0.0259(12) 0.0028(9) 0.0053(10) 0.0072(10)
C13 0.0302(12) 0.0258(12) 0.0283(12) -0.0039(9) 0.0060(9) -0.0022(9)
C14 0.0259(11) 0.0222(11) 0.0230(11) -0.0010(9) 0.0005(9) 0.0049(9)
C15 0.0226(11) 0.0211(10) 0.0175(10) 0.0004(8) -0.0003(8) 0.0006(8)

_geom_special_details            
;
All esds (except the esd in the dihedral angle between two l.s. planes)
are estimated using the full covariance matrix. The cell esds are taken
into account individually in the estimation of esds in distances, angles
and torsion angles; correlations between esds in cell parameters are only
used when they are defined by crystal symmetry. An approximate (isotropic)
treatment of cell esds is used for estimating esds involving l.s. planes.
;

loop_
_geom_bond_atom_site_label_1
_geom_bond_atom_site_label_2
_geom_bond_distance
_geom_bond_site_symmetry_2
_geom_bond_publ_flag
S1 C15 1.718(2) . ?
S1 C1 1.755(2) . ?
C1 C8 1.369(3) . ?
C1 C2 1.467(3) . ?
C2 C3 1.396(3) . ?
C2 C7 1.405(3) . ?
C3 C4 1.380(3) . ?
C3 H3 0.9300 . ?
C4 C5 1.385(3) . ?
C4 H4 0.9300 . ?
C5 C6 1.387(3) . ?
C5 H5 0.9300 . ?
C6 C7 1.383(3) . ?
C6 H6 0.9300 . ?
C7 H7 0.9300 . ?
C8 C15 1.432(3) 3_566 ?
C8 C9 1.490(3) . ?
C9 C10 1.393(3) . ?
C9 C14 1.396(3) . ?
C10 C11 1.383(3) . ?
C10 H10 0.9300 . ?
C11 C12 1.374(3) . ?
C11 H11 0.9300 . ?
C12 C13 1.394(3) . ?
C12 H12 0.9300 . ?
C13 C14 1.376(3) . ?
C13 H13 0.9300 . ?
C14 H14 0.9300 . ?
C15 C15 1.376(4) 3_566 ?
C15 C8 1.431(3) 3_566 ?

loop_
_geom_angle_atom_site_label_1
_geom_angle_atom_site_label_2
_geom_angle_atom_site_label_3
_geom_angle
_geom_angle_site_symmetry_1
_geom_angle_site_symmetry_3
_geom_angle_publ_flag
C15 S1 C1 91.47(10) . . ?
C8 C1 C2 130.63(19) . . ?
C8 C1 S1 112.17(15) . . ?
C2 C1 S1 117.11(15) . . ?
C3 C2 C7 118.3(2) . . ?
C3 C2 C1 120.66(19) . . ?
C7 C2 C1 121.0(2) . . ?
C4 C3 C2 121.4(2) . . ?
C4 C3 H3 119.3 . . ?
C2 C3 H3 119.3 . . ?
C3 C4 C5 119.8(2) . . ?
C3 C4 H4 120.1 . . ?
C5 C4 H4 120.1 . . ?
C4 C5 C6 119.6(2) . . ?
C4 C5 H5 120.2 . . ?
C6 C5 H5 120.2 . . ?
C7 C6 C5 120.9(2) . . ?
C7 C6 H6 119.5 . . ?
C5 C6 H6 119.5 . . ?
C6 C7 C2 119.9(2) . . ?
C6 C7 H7 120.0 . . ?
C2 C7 H7 120.0 . . ?
C1 C8 C15 110.95(18) . 3_566 ?
C1 C8 C9 127.04(18) . . ?
C15 C8 C9 121.99(18) 3_566 . ?
C10 C9 C14 118.74(19) . . ?
C10 C9 C8 121.03(19) . . ?
C14 C9 C8 120.21(18) . . ?
C11 C10 C9 120.5(2) . . ?
C11 C10 H10 119.8 . . ?
C9 C10 H10 119.8 . . ?
C12 C11 C10 120.4(2) . . ?
C12 C11 H11 119.8 . . ?
C10 C11 H11 119.8 . . ?
C11 C12 C13 119.7(2) . . ?
C11 C12 H12 120.2 . . ?
C13 C12 H12 120.2 . . ?
C14 C13 C12 120.1(2) . . ?
C14 C13 H13 119.9 . . ?
C12 C13 H13 119.9 . . ?
C13 C14 C9 120.5(2) . . ?
C13 C14 H14 119.7 . . ?
C9 C14 H14 119.7 . . ?
C15 C15 C8 114.3(2) 3_566 3_566 ?
C15 C15 S1 111.1(2) 3_566 . ?
C8 C15 S1 134.59(16) 3_566 . ?

loop_
_geom_torsion_atom_site_label_1
_geom_torsion_atom_site_label_2
_geom_torsion_atom_site_label_3
_geom_torsion_atom_site_label_4
_geom_torsion
_geom_torsion_site_symmetry_1
_geom_torsion_site_symmetry_2
_geom_torsion_site_symmetry_3
_geom_torsion_site_symmetry_4
_geom_torsion_publ_flag
C15 S1 C1 C8 0.01(16) . . . . ?
C15 S1 C1 C2 176.93(16) . . . . ?
C8 C1 C2 C3 -148.4(2) . . . . ?
S1 C1 C2 C3 35.3(2) . . . . ?
C8 C1 C2 C7 34.8(3) . . . . ?
S1 C1 C2 C7 -141.46(17) . . . . ?
C7 C2 C3 C4 -0.7(3) . . . . ?
C1 C2 C3 C4 -177.58(19) . . . . ?
C2 C3 C4 C5 0.3(3) . . . . ?
C3 C4 C5 C6 0.1(3) . . . . ?
C4 C5 C6 C7 0.0(3) . . . . ?
C5 C6 C7 C2 -0.4(3) . . . . ?
C3 C2 C7 C6 0.8(3) . . . . ?
C1 C2 C7 C6 177.63(19) . . . . ?
C2 C1 C8 C15 -176.1(2) . . . 3_566 ?
S1 C1 C8 C15 0.3(2) . . . 3_566 ?
C2 C1 C8 C9 5.2(4) . . . . ?
S1 C1 C8 C9 -178.39(16) . . . . ?
C1 C8 C9 C10 59.3(3) . . . . ?
C15 C8 C9 C10 -119.3(2) 3_566 . . . ?
C1 C8 C9 C14 -122.4(2) . . . . ?
C15 C8 C9 C14 59.0(3) 3_566 . . . ?
C14 C9 C10 C11 0.2(3) . . . . ?
C8 C9 C10 C11 178.52(19) . . . . ?
C9 C10 C11 C12 0.7(3) . . . . ?
C10 C11 C12 C13 -1.2(3) . . . . ?
C11 C12 C13 C14 0.6(3) . . . . ?
C12 C13 C14 C9 0.3(3) . . . . ?
C10 C9 C14 C13 -0.7(3) . . . . ?
C8 C9 C14 C13 -179.06(19) . . . . ?
C1 S1 C15 C15 -0.3(2) . . . 3_566 ?
C1 S1 C15 C8 -179.6(2) . . . 3_566 ?

_diffrn_measured_fraction_theta_max 0.996
_diffrn_reflns_theta_full        25.02
_diffrn_measured_fraction_theta_full 0.996
_refine_diff_density_max         1.100
_refine_diff_density_min         -0.375
_refine_diff_density_rms         0.055
